<?xml version="1.0" encoding="UTF-8"?>

<!-- generated on 2021-11-19 22:24:05 by Eclipse SUMO polyconvert Version 1.10.0
<configuration xmlns:xsi="http://www.w3.org/2001/XMLSchema-instance" xsi:noNamespaceSchemaLocation="http://sumo.dlr.de/xsd/polyconvertConfiguration.xsd">

    <input>
        <osm-files value="highway/highway.osm"/>
    </input>

    <output>
        <output-file value="highway/highway.poly"/>
    </output>

    <projection>
        <proj.scale value="1"/>
        <proj.utm value="true"/>
    </projection>

    <processing>
        <poi-layer-offset value="5"/>
    </processing>

</configuration>
-->

<additional xmlns:xsi="http://www.w3.org/2001/XMLSchema-instance" xsi:noNamespaceSchemaLocation="http://sumo.dlr.de/xsd/additional_file.xsd">
    <location netOffset="0.00,0.00" convBoundary="477567.43,4982372.29,500813.25,5002297.64" origBoundary="-93.285300,44.994608,-92.989650,45.174159" projParameter="+proj=utm +zone=15 +ellps=WGS84 +datum=WGS84 +units=m +no_defs"/>

    <poly id="133279400" type="leisure" color="207,245,201" fill="1" layer="-2.00" shape="489323.418056,4990337.619811 489327.326073,4990405.377517 489319.730666,4990406.223411 489303.675453,4990404.150764 489292.696468,4990401.225348 489282.972789,4990395.765011 489275.356060,4990388.623699 489267.318541,4990379.383524 489262.658231,4990370.126558 489259.263958,4990360.034294 489257.558621,4990352.460904 489257.544423,4990344.040386 489257.538037,4990340.252264 489323.418056,4990337.619811"/>
    <poly id="133279400#1" type="sport" color="79,230,125" fill="1" layer="-2.00" shape="489323.418056,4990337.619811 489327.326073,4990405.377517 489319.730666,4990406.223411 489303.675453,4990404.150764 489292.696468,4990401.225348 489282.972789,4990395.765011 489275.356060,4990388.623699 489267.318541,4990379.383524 489262.658231,4990370.126558 489259.263958,4990360.034294 489257.558621,4990352.460904 489257.544423,4990344.040386 489257.538037,4990340.252264 489323.418056,4990337.619811"/>
    <poly id="133279402" type="leisure" color="207,245,201" fill="1" layer="-2.00" shape="489349.599603,4990336.309579 489418.435344,4990335.772749 489419.299369,4990348.824264 489415.520767,4990363.138794 489409.207279,4990377.457540 489400.775621,4990386.725270 489393.616515,4990394.313449 489383.487463,4990400.651279 489371.244420,4990404.459824 489359.005739,4990406.157696 489353.092911,4990405.745436 489349.599603,4990336.309579"/>
    <poly id="133279402#1" type="sport" color="79,230,125" fill="1" layer="-2.00" shape="489349.599603,4990336.309579 489418.435344,4990335.772749 489419.299369,4990348.824264 489415.520767,4990363.138794 489409.207279,4990377.457540 489400.775621,4990386.725270 489393.616515,4990394.313449 489383.487463,4990400.651279 489371.244420,4990404.459824 489359.005739,4990406.157696 489353.092911,4990405.745436 489349.599603,4990336.309579"/>
    <poly id="151010789" type="tourism" color="207,245,201" fill="1" layer="-2.00" shape="488267.739458,4991081.617843 488394.435807,4991079.552784 488391.873563,4990969.368163 488392.430049,4990946.449468 488070.896285,4990947.187879 488036.064612,4990947.497596 488036.627210,4991020.726492 488013.417186,4991030.868126 488012.371633,4991148.713461 488134.402246,4991148.484978 488267.739458,4991081.617843"/>
    <poly id="151011153" type="tourism" color="207,245,201" fill="1" layer="-2.00" shape="489218.299102,4988346.552931 489030.228998,4988345.562908 489008.180309,4988295.922063 488963.343037,4988265.683445 488933.750568,4988253.103967 488872.070683,4988251.533885 488810.517565,4988250.419641 488816.649041,4988446.147021 488912.965186,4988445.978793 488914.088320,4988534.847747 489219.930290,4988533.478970 489218.299102,4988346.552931"/>
    <poly id="161723843" type="building" color="255,230,230" fill="1" layer="-1.00" shape="482812.127148,4991017.950293 482812.086264,4991002.797789 482869.093629,4991003.066368 482869.206910,4991015.919123 482833.524388,4991015.804111 482833.744286,4991018.536322 482812.127148,4991017.950293"/>
    <poly id="164032820" type="parking" color="184,184,179" fill="1" layer="-1.00" shape="488666.334076,4989729.709750 488750.790562,4989730.115551 488786.895529,4989724.786308 488801.601836,4989715.351223 488806.578950,4989702.611696 488807.164537,4989560.850198 488683.533283,4989559.124473 488685.892695,4989637.482353 488593.663047,4989636.535872 488573.704798,4989641.259574 488574.116195,4989734.584592 488589.673570,4989734.556717 488589.596236,4989691.365504 488596.540912,4989691.630795 488596.226247,4989674.179298 488665.960519,4989674.610339 488666.334076,4989729.709750"/>
    <poly id="164032821" type="amenity" color="237,199,199" fill="1" layer="-1.00" shape="488493.866840,4989713.933142 488518.469749,4989709.067511 488513.933128,4989686.313576 488489.330135,4989691.179224 488493.866840,4989713.933142"/>
    <poly id="164032821#1" type="building" color="255,230,230" fill="1" layer="-1.00" shape="488493.866840,4989713.933142 488518.469749,4989709.067511 488513.933128,4989686.313576 488489.330135,4989691.179224 488493.866840,4989713.933142"/>
    <poly id="164032822" type="parking" color="184,184,179" fill="1" layer="-1.00" shape="488449.815567,4989743.995718 488523.074796,4989730.488260 488526.078549,4989693.390276 488521.611103,4989678.434651 488507.254710,4989667.795994 488456.651432,4989684.217516 488441.207847,4989703.641626 488441.041020,4989737.546254 488448.551815,4989737.421547 488449.815567,4989743.995718"/>
    <poly id="164064211" type="water" color="181,209,209" fill="1" layer="-4.00" shape="488560.415725,4989773.434733 488531.247125,4989774.209238 488528.932574,4989778.668068 488530.589486,4989780.642468 488540.189924,4989777.981281 488545.656240,4989779.293411 488562.378765,4989779.285593 488568.614964,4989784.051226 488573.790591,4989794.495407 488572.203246,4989804.962827 488575.236346,4989810.445179 488589.638104,4989811.485829 488596.749654,4989808.284849 488606.122082,4989779.384975 488601.844386,4989773.538241 488560.415725,4989773.434733"/>
    <poly id="164064213" type="water" color="181,209,209" fill="1" layer="-4.00" shape="488435.056736,4989928.063464 488440.611784,4989930.608430 488449.984992,4989924.348237 488457.526234,4989923.768019 488463.776245,4989918.802136 488462.196698,4989911.717523 488449.528523,4989907.063629 488442.123207,4989900.122891 488439.406075,4989890.918549 488437.254237,4989880.857798 488432.721771,4989895.185384 488433.049609,4989915.314100 488435.056736,4989928.063464"/>
    <poly id="164064214" type="parking" color="184,184,179" fill="1" layer="-1.00" shape="488795.034679,4990037.220590 488795.372772,4989969.811247 488798.210750,4989895.798837 488798.452431,4989773.511776 488780.375579,4989773.443597 488780.215976,4989767.756128 488635.002515,4989767.135845 488612.724760,4989821.831344 488567.430204,4989821.434761 488567.476361,4989847.162865 488511.719590,4989847.263139 488512.028037,4989887.343458 488458.781043,4989886.306566 488459.264474,4989901.102733 488475.490644,4989901.073367 488475.332345,4989939.788139 488457.279356,4989939.598637 488457.417115,4990015.649864 488439.820963,4990015.459584 488440.334599,4990046.885712 488533.619985,4990047.172629 488533.810175,4990025.987628 488579.960978,4990026.138037 488579.980568,4990037.069152 488644.420990,4990037.864918 488643.745382,4990043.098410 488675.047986,4990043.275987 488674.807927,4990036.666622 488723.470459,4990037.035785 488723.481350,4990043.190091 488772.379601,4990043.325923 488772.596285,4990036.726860 488795.034679,4990037.220590"/>
    <poly id="164064215" type="parking" color="184,184,179" fill="1" layer="-1.00" shape="488434.288528,4990133.768237 488604.276382,4990134.084056 488604.305027,4990119.286958 488434.316758,4990118.960029 488434.288528,4990133.768237"/>
    <poly id="164064216" type="building" color="255,230,230" fill="1" layer="-1.00" shape="488459.617497,4989883.016819 488506.540571,4989882.987559 488506.512012,4989840.962680 488548.798177,4989840.942097 488548.769547,4989794.340360 488459.567220,4989794.390187 488459.617497,4989883.016819"/>
    <poly id="164064217" type="parking" color="184,184,179" fill="1" layer="-1.00" shape="488664.830857,4990132.787395 488789.188285,4990132.956197 488789.250113,4990087.554044 488793.336079,4990087.557966 488793.395732,4990040.900516 488774.138779,4990040.867758 488774.031291,4990118.385797 488664.852205,4990118.234706 488664.830857,4990132.787395"/>
    <poly id="164124546" type="building" color="255,230,230" fill="1" layer="-1.00" shape="488603.398221,4989304.007385 488696.073645,4989304.975452 488696.356170,4989277.813742 488711.702403,4989277.975395 488713.190465,4989135.645826 488612.977095,4989134.602093 488612.789015,4989152.732116 488607.749610,4989152.674468 488607.541935,4989173.048519 488612.581304,4989173.095058 488612.292347,4989200.867768 488608.638813,4989200.829861 488608.396791,4989224.014522 488612.050312,4989224.052429 488611.915523,4989236.750117 488605.403748,4989236.672884 488605.263184,4989250.537016 488600.948282,4989250.500296 488600.738985,4989269.952317 488603.746813,4989269.980265 488603.398221,4989304.007385"/>
    <poly id="164124546#1" type="shop" color="237,199,255" fill="1" layer="-1.00" shape="488603.398221,4989304.007385 488696.073645,4989304.975452 488696.356170,4989277.813742 488711.702403,4989277.975395 488713.190465,4989135.645826 488612.977095,4989134.602093 488612.789015,4989152.732116 488607.749610,4989152.674468 488607.541935,4989173.048519 488612.581304,4989173.095058 488612.292347,4989200.867768 488608.638813,4989200.829861 488608.396791,4989224.014522 488612.050312,4989224.052429 488611.915523,4989236.750117 488605.403748,4989236.672884 488605.263184,4989250.537016 488600.948282,4989250.500296 488600.738985,4989269.952317 488603.746813,4989269.980265 488603.398221,4989304.007385"/>
    <poly id="164124548" type="building" color="255,230,230" fill="1" layer="-1.00" shape="488594.389197,4989716.729621 488658.170777,4989717.115687 488658.190126,4989714.716133 488661.489052,4989714.743589 488661.580941,4989700.013043 488658.282028,4989699.996695 488658.299835,4989696.730651 488635.640414,4989696.593276 488635.670569,4989691.427590 488638.693924,4989691.444418 488638.742908,4989683.590348 488635.719549,4989683.573521 488635.737325,4989680.296368 488631.060565,4989680.271382 488631.145860,4989666.296252 488625.603013,4989666.261707 488625.517731,4989680.236838 488622.203060,4989680.220537 488622.185033,4989683.353275 488618.067275,4989683.327301 488618.018754,4989691.425766 488622.136506,4989691.451740 488622.106184,4989696.517446 488594.510178,4989696.344597 488594.497831,4989698.244239 488591.332761,4989698.227687 488591.228549,4989714.780114 488594.401484,4989714.796653 488594.389197,4989716.729621"/>
    <poly id="164124548#1" type="tourism" color="207,245,201" fill="1" layer="-2.00" shape="488594.389197,4989716.729621 488658.170777,4989717.115687 488658.190126,4989714.716133 488661.489052,4989714.743589 488661.580941,4989700.013043 488658.282028,4989699.996695 488658.299835,4989696.730651 488635.640414,4989696.593276 488635.670569,4989691.427590 488638.693924,4989691.444418 488638.742908,4989683.590348 488635.719549,4989683.573521 488635.737325,4989680.296368 488631.060565,4989680.271382 488631.145860,4989666.296252 488625.603013,4989666.261707 488625.517731,4989680.236838 488622.203060,4989680.220537 488622.185033,4989683.353275 488618.067275,4989683.327301 488618.018754,4989691.425766 488622.136506,4989691.451740 488622.106184,4989696.517446 488594.510178,4989696.344597 488594.497831,4989698.244239 488591.332761,4989698.227687 488591.228549,4989714.780114 488594.401484,4989714.796653 488594.389197,4989716.729621"/>
    <poly id="164124549" type="building" color="255,230,230" fill="1" layer="-1.00" shape="488713.276592,4989660.007050 488715.268545,4989660.014632 488715.266042,4989663.047362 488721.367833,4989663.047669 488721.370339,4989660.014939 488727.283195,4989660.026695 488727.279743,4989662.526200 488735.058557,4989662.534663 488735.062012,4989660.035158 488743.029767,4989660.032187 488743.020424,4989677.028798 488753.358022,4989677.032764 488753.367413,4989660.047262 488756.524608,4989660.052800 488756.559174,4989626.092879 488750.134542,4989626.093108 488750.149926,4989603.586482 488746.583289,4989603.581670 488746.582301,4989607.480890 488746.580371,4989610.846885 488708.449717,4989610.814351 488708.443870,4989625.289237 488706.160593,4989625.282174 488706.153627,4989630.236749 488710.452465,4989630.240241 488710.446263,4989635.628061 488713.296412,4989635.634122 488713.284987,4989646.965205 488710.143531,4989646.959660 488710.136266,4989656.191156 488713.277697,4989656.185592 488713.276592,4989660.007050"/>
    <poly id="164124550" type="building" color="255,230,230" fill="1" layer="-1.00" shape="488703.429369,4989603.535819 488746.583289,4989603.581670 488750.149926,4989603.586482 488765.739171,4989603.592309 488765.699187,4989652.371490 488782.288237,4989652.386703 488782.344205,4989585.777736 488703.445005,4989585.706033 488703.429369,4989603.535819"/>
    <poly id="164124550#1" type="tourism" color="207,245,201" fill="1" layer="-2.00" shape="488703.429369,4989603.535819 488746.583289,4989603.581670 488750.149926,4989603.586482 488765.739171,4989603.592309 488765.699187,4989652.371490 488782.288237,4989652.386703 488782.344205,4989585.777736 488703.445005,4989585.706033 488703.429369,4989603.535819"/>
    <poly id="164124977" type="building" color="255,230,230" fill="1" layer="-1.00" shape="489342.384446,4990315.092549 489349.501231,4990315.136193 489349.525776,4990310.981426 489351.320713,4990310.989535 489351.368914,4990302.146776 489349.573974,4990302.138667 489349.579433,4990300.694502 489342.494122,4990300.650805 489342.488572,4990302.039426 489340.866827,4990302.031030 489340.818547,4990310.818245 489342.408801,4990310.826693 489342.384446,4990315.092549"/>
    <poly id="164124978" type="leisure" color="207,245,201" fill="1" layer="-2.00" shape="489400.723118,4990284.179167 489418.137054,4990284.150222 489418.069295,4990248.090872 489400.655260,4990248.119817 489400.723118,4990284.179167"/>
    <poly id="164124978#1" type="sport" color="79,230,125" fill="1" layer="-2.00" shape="489400.723118,4990284.179167 489418.137054,4990284.150222 489418.069295,4990248.090872 489400.655260,4990248.119817 489400.723118,4990284.179167"/>
    <poly id="164124979" type="leisure" color="207,245,201" fill="1" layer="-2.00" shape="489367.194225,4990284.246140 489400.723118,4990284.179167 489400.655260,4990248.119817 489367.126178,4990248.186790 489367.194225,4990284.246140"/>
    <poly id="164124979#1" type="sport" color="79,230,125" fill="1" layer="-2.00" shape="489367.194225,4990284.246140 489400.723118,4990284.179167 489400.655260,4990248.119817 489367.126178,4990248.186790 489367.194225,4990284.246140"/>
    <poly id="164124989" type="building" color="255,230,230" fill="1" layer="-1.00" shape="488644.695780,4990116.959745 488769.958976,4990117.182104 488770.076512,4990054.327784 488644.812061,4990054.094312 488644.695780,4990116.959745"/>
    <poly id="164124990" type="building" color="255,230,230" fill="1" layer="-1.00" shape="488545.436092,4990116.704160 488617.251415,4990116.919841 488617.451307,4990052.532339 488545.635258,4990052.316655 488545.436092,4990116.704160"/>
    <poly id="164124991" type="building" color="255,230,230" fill="1" layer="-1.00" shape="488458.977049,4990116.238072 488527.367702,4990116.425617 488527.439889,4990090.930575 488514.182100,4990090.887806 488514.244638,4990068.803213 488500.837220,4990068.760740 488500.892922,4990047.276040 488459.166851,4990047.162625 488458.977049,4990116.238072"/>
    <poly id="165352272" type="building" color="255,230,230" fill="1" layer="-1.00" shape="488185.602845,4990904.860229 488233.542113,4990905.038116 488240.626743,4990905.069470 488240.736419,4990879.196617 488240.774399,4990869.920607 488240.061244,4990867.377984 488238.538917,4990865.714458 488235.522244,4990864.753553 488222.927290,4990864.710171 488217.684630,4990864.686539 488217.697065,4990862.897981 488185.760936,4990862.768276 488185.602845,4990904.860229"/>
    <poly id="165352273" type="building" color="255,230,230" fill="1" layer="-1.00" shape="488127.425836,4990830.483147 488195.666638,4990830.389661 488195.598809,4990785.287618 488127.357525,4990785.381104 488127.425836,4990830.483147"/>
    <poly id="165352274" type="building" color="255,230,230" fill="1" layer="-1.00" shape="488251.364421,4990832.841748 488319.196349,4990833.016952 488319.317199,4990787.303575 488283.326746,4990787.214142 488251.484785,4990787.128368 488251.364421,4990832.841748"/>
    <poly id="165352275" type="building" color="255,230,230" fill="1" layer="-1.00" shape="488240.626743,4990905.069470 488240.611864,4990909.801893 488240.530023,4990929.431489 488288.067668,4990929.621635 488288.266567,4990879.386780 488248.065102,4990879.227529 488240.736419,4990879.196617 488240.626743,4990905.069470"/>
    <poly id="165359354" type="leisure" color="207,245,201" fill="1" layer="-2.00" shape="488773.526574,4989344.719430 489003.556925,4989354.471912 489211.218759,4989290.540909 489212.150937,4989190.015123 489161.504435,4989133.368027 489118.060360,4989071.299015 489118.354677,4988999.246371 489034.868066,4988996.078998 489003.332247,4988982.358324 488946.386803,4988982.456819 488872.714960,4988986.050969 488811.146831,4988985.803260 488771.883298,4988992.926436 488758.806527,4988998.592791 488754.930634,4989010.941586 488755.034522,4989069.829544 488751.211371,4989107.573137 488751.823487,4989124.257588 488749.610368,4989155.177495 488749.906415,4989193.535922 488742.210392,4989200.603648 488764.039524,4989229.003854 488771.779354,4989233.400439 488782.535412,4989233.648113 488782.047442,4989256.133339 488774.079867,4989256.525069 488773.526574,4989344.719430"/>
    <poly id="165561746" type="amenity" color="237,199,199" fill="1" layer="-1.00" shape="488442.156036,4989384.248361 488458.226312,4989384.363654 488458.350470,4989365.967121 488442.280148,4989365.851827 488442.156036,4989384.248361"/>
    <poly id="165561746#1" type="building" color="255,230,230" fill="1" layer="-1.00" shape="488442.156036,4989384.248361 488458.226312,4989384.363654 488458.350470,4989365.967121 488442.280148,4989365.851827 488442.156036,4989384.248361"/>
    <poly id="165561747" type="amenity" color="237,199,199" fill="1" layer="-1.00" shape="488444.865350,4988511.596940 488451.497464,4988508.141174 488453.085788,4988511.182127 488460.087675,4988507.536849 488458.499354,4988504.495895 488462.582495,4988502.377820 488459.334778,4988496.184951 488455.251653,4988498.314137 488453.489500,4988494.951342 488446.487603,4988498.596626 488448.249759,4988501.959420 488441.617640,4988505.415189 488444.865350,4988511.596940"/>
    <poly id="165561747#1" type="building" color="255,230,230" fill="1" layer="-1.00" shape="488444.865350,4988511.596940 488451.497464,4988508.141174 488453.085788,4988511.182127 488460.087675,4988507.536849 488458.499354,4988504.495895 488462.582495,4988502.377820 488459.334778,4988496.184951 488455.251653,4988498.314137 488453.489500,4988494.951342 488446.487603,4988498.596626 488448.249759,4988501.959420 488441.617640,4988505.415189 488444.865350,4988511.596940"/>
    <poly id="165561748" type="building" color="255,230,230" fill="1" layer="-1.00" shape="488461.224483,4989383.436188 488491.033870,4989383.348962 488490.991724,4989368.729750 488481.448920,4989368.758099 488481.431048,4989363.225908 488461.164379,4989363.284785 488461.224483,4989383.436188"/>
    <poly id="165561772" type="building" color="255,230,230" fill="1" layer="-1.00" shape="488462.582495,4988502.377820 488464.716038,4988506.450913 488472.543995,4988502.370909 488469.825720,4988497.187984 488474.451702,4988494.780104 488472.025814,4988490.163202 488474.244391,4988489.003868 488471.929108,4988484.586726 488457.256552,4988492.222848 488459.334778,4988496.184951 488462.582495,4988502.377820"/>
    <poly id="165561772#1" type="shop" color="237,199,255" fill="1" layer="-1.00" shape="488462.582495,4988502.377820 488464.716038,4988506.450913 488472.543995,4988502.370909 488469.825720,4988497.187984 488474.451702,4988494.780104 488472.025814,4988490.163202 488474.244391,4988489.003868 488471.929108,4988484.586726 488457.256552,4988492.222848 488459.334778,4988496.184951 488462.582495,4988502.377820"/>
    <poly id="165561773" type="parking" color="184,184,179" fill="1" layer="-1.00" shape="488128.692430,4989325.691932 488147.920803,4989326.122720 488147.898837,4989322.778987 488148.207755,4989289.896120 488167.908245,4989290.103913 488167.735523,4989294.614440 488229.898850,4989294.710408 488230.249234,4989322.426422 488230.312535,4989326.858749 488251.626559,4989326.819425 488251.300373,4989260.922141 488241.181988,4989260.607534 488143.088456,4989259.533959 488143.282572,4989262.299709 488138.864922,4989262.052424 488139.336286,4989210.706298 488168.139727,4989211.208208 488168.570522,4989214.229024 488241.688433,4989215.026862 488243.830416,4989215.189544 488243.108778,4989178.264959 488201.802647,4989178.396828 488201.796850,4989179.518836 488185.190691,4989179.438507 488185.196691,4989178.427588 488176.779500,4989178.420978 488143.732546,4989178.271296 488139.339101,4989178.368341 488139.349928,4989129.178201 488172.770674,4989131.193460 488244.337332,4989131.427658 488245.113135,4989095.255719 488139.497327,4989094.140523 488139.902583,4989045.338466 488178.335334,4989045.089329 488178.269289,4989047.688929 488178.193450,4989053.499013 488246.068952,4989054.217762 488245.806884,4989014.581772 488215.629224,4989016.581546 488196.967451,4989016.471659 488170.390109,4989015.221189 488144.814807,4989015.068745 488140.098372,4989015.144172 488140.394934,4988971.396863 488125.441380,4988971.091436 488123.014181,4989257.382885 488127.428347,4989259.985248 488126.535719,4989283.793245 488134.693476,4989284.089101 488134.988242,4989290.165111 488128.578893,4989290.099284 488128.692430,4989325.691932"/>
    <poly id="165561774" type="parking" color="184,184,179" fill="1" layer="-1.00" shape="488328.896147,4990833.943432 488348.505043,4990834.029735 488348.781302,4990769.875289 488342.302658,4990769.842706 488342.329963,4990763.255074 488104.273297,4990762.250984 488104.244931,4990768.138758 488098.876241,4990768.115459 488098.673659,4990815.584205 488118.148796,4990815.670050 488118.292260,4990782.854065 488205.537174,4990783.214062 488205.317361,4990834.559845 488241.779981,4990834.714618 488241.998837,4990782.691197 488329.117810,4990783.064228 488328.896147,4990833.943432"/>
    <poly id="165561775" type="parking" color="184,184,179" fill="1" layer="-1.00" shape="488440.359666,4989140.478360 488440.117224,4989206.509972 488446.125269,4989206.676820 488446.316898,4989212.486417 488480.348812,4989213.146895 488480.025629,4989234.732031 488500.160887,4989301.260076 488499.669637,4989330.099616 488682.751649,4989331.771492 488682.536724,4989312.720146 488597.001950,4989311.239597 488597.416094,4989239.053360 488604.587373,4989180.818906 488604.505983,4989135.294874 488495.678429,4989134.212848 488495.690219,4989140.744846 488440.359666,4989140.478360"/>
    <poly id="165561777" type="building" color="255,230,230" fill="1" layer="-1.00" shape="488263.144872,4989313.500872 488284.286026,4989313.628609 488284.767639,4989232.955030 488263.626218,4989232.827291 488263.144872,4989313.500872"/>
    <poly id="165561778" type="building" color="255,230,230" fill="1" layer="-1.00" shape="488156.296507,4989316.620164 488221.901425,4989317.253995 488222.107183,4989296.513332 488156.502030,4989295.868390 488156.296507,4989316.620164"/>
    <poly id="165561780" type="parking" color="184,184,179" fill="1" layer="-1.00" shape="488197.619776,4990928.611023 488227.918406,4990928.821574 488228.042235,4990910.636059 488188.501983,4990910.364873 488188.420763,4990921.751657 488197.670174,4990921.823385 488197.619776,4990928.611023"/>
    <poly id="165561781" type="parking" color="184,184,179" fill="1" layer="-1.00" shape="488171.520253,4990926.037728 488171.459290,4990910.163208 488171.232832,4990847.553812 488119.261113,4990846.495199 488079.261008,4990861.511407 488080.559287,4990932.728206 488165.125077,4990932.714953 488165.403802,4990925.971326 488171.520253,4990926.037728"/>
    <poly id="165566079" type="parking" color="184,184,179" fill="1" layer="-1.00" shape="489330.942863,4990289.861184 489360.290606,4990289.301101 489360.219021,4990246.432006 489360.184091,4990225.514022 489354.162033,4990221.080525 489355.301551,4990172.754946 489350.416812,4990170.541330 489334.939399,4990170.667197 489334.078413,4990225.391035 489329.307454,4990229.986995 489330.942863,4990289.861184"/>
    <poly id="165566080" type="leisure" color="207,245,201" fill="1" layer="-2.00" shape="489372.317878,4990316.475597 489422.662806,4990316.780633 489426.044160,4990314.486588 489427.786055,4990310.995505 489427.872252,4990296.520476 489426.118424,4990292.824125 489422.824356,4990290.796665 489372.479222,4990290.491629 489369.428019,4990292.485210 489367.905652,4990295.420498 489367.821779,4990311.206374 489369.464327,4990314.247470 489372.317878,4990316.475597"/>
    <poly id="165566080#1" type="sport" color="79,230,125" fill="1" layer="-2.00" shape="489372.317878,4990316.475597 489422.662806,4990316.780633 489426.044160,4990314.486588 489427.786055,4990310.995505 489427.872252,4990296.520476 489426.118424,4990292.824125 489422.824356,4990290.796665 489372.479222,4990290.491629 489369.428019,4990292.485210 489367.905652,4990295.420498 489367.821779,4990311.206374 489369.464327,4990314.247470 489372.317878,4990316.475597"/>
    <poly id="165566087" type="leisure" color="207,245,201" fill="1" layer="-2.00" shape="489400.460184,4990244.431990 489426.400864,4990244.799918 489427.059120,4990228.735369 489420.493168,4990223.858356 489400.559848,4990223.891484 489400.460184,4990244.431990"/>
    <poly id="165566565" type="residential" color="235,235,227" fill="1" layer="-3.00" shape="488430.332069,4990447.857292 488621.984933,4990448.689694 488671.076210,4990359.897660 488674.510507,4990290.116572 488606.685100,4990186.735909 488498.071568,4990172.156214 488431.018265,4990171.088954 488430.332069,4990447.857292"/>
    <poly id="165566569" type="building" color="255,230,230" fill="1" layer="-1.00" shape="488465.874158,4989403.179364 488479.582212,4989403.243442 488479.615317,4989395.422729 488465.915099,4989395.347528 488465.874158,4989403.179364"/>
    <poly id="165755652" type="amenity" color="237,199,199" fill="1" layer="-1.00" shape="487712.450095,4988603.115031 487735.096745,4988602.760372 487734.872225,4988588.385923 487726.446635,4988588.513228 487726.409918,4988585.802733 487712.180905,4988586.018995 487712.450095,4988603.115031"/>
    <poly id="165755652#1" type="building" color="255,230,230" fill="1" layer="-1.00" shape="487712.450095,4988603.115031 487735.096745,4988602.760372 487734.872225,4988588.385923 487726.446635,4988588.513228 487726.409918,4988585.802733 487712.180905,4988586.018995 487712.450095,4988603.115031"/>
    <poly id="165755662" type="parking" color="184,184,179" fill="1" layer="-1.00" shape="487708.711201,4988742.771896 487711.199693,4988791.879438 487762.270636,4988782.549714 487761.276590,4988666.730494 487690.923692,4988677.941497 487695.004927,4988691.342029 487722.762472,4988687.244880 487724.198443,4988696.884618 487725.654809,4988696.670745 487731.989259,4988739.338848 487708.711201,4988742.771896"/>
    <poly id="165755663" type="building" color="255,230,230" fill="1" layer="-1.00" shape="487795.142416,4988632.539109 487821.979149,4988632.665528 487822.002370,4988628.333023 487852.823697,4988628.485288 487853.149187,4988563.742163 487811.539199,4988563.543859 487811.465545,4988578.563195 487800.393715,4988578.506611 487792.393020,4988578.466382 487792.261491,4988604.361415 487795.277492,4988604.377858 487795.142416,4988632.539109"/>
    <poly id="165755663#1" type="leisure" color="207,245,201" fill="1" layer="-2.00" shape="487795.142416,4988632.539109 487821.979149,4988632.665528 487822.002370,4988628.333023 487852.823697,4988628.485288 487853.149187,4988563.742163 487811.539199,4988563.543859 487811.465545,4988578.563195 487800.393715,4988578.506611 487792.393020,4988578.466382 487792.261491,4988604.361415 487795.277492,4988604.377858 487795.142416,4988632.539109"/>
    <poly id="165755663#2" type="sport" color="79,230,125" fill="1" layer="-2.00" shape="487795.142416,4988632.539109 487821.979149,4988632.665528 487822.002370,4988628.333023 487852.823697,4988628.485288 487853.149187,4988563.742163 487811.539199,4988563.543859 487811.465545,4988578.563195 487800.393715,4988578.506611 487792.393020,4988578.466382 487792.261491,4988604.361415 487795.277492,4988604.377858 487795.142416,4988632.539109"/>
    <poly id="165755665" type="parking" color="184,184,179" fill="1" layer="-1.00" shape="487764.107177,4988668.624678 487763.424498,4988690.388272 487765.154442,4988767.069515 487830.815695,4988752.968865 487832.309548,4988656.885363 487824.505157,4988656.500344 487764.107177,4988668.624678"/>
    <poly id="165755666" type="building" color="255,230,230" fill="1" layer="-1.00" shape="487708.711201,4988742.771896 487731.989259,4988739.338848 487725.654809,4988696.670745 487724.198443,4988696.884618 487722.762472,4988687.244880 487695.004927,4988691.342029 487696.672364,4988702.569883 487702.608022,4988701.691938 487708.711201,4988742.771896"/>
    <poly id="165755667" type="parking" color="184,184,179" fill="1" layer="-1.00" shape="487748.623465,4988667.365787 487760.467971,4988647.502587 487760.472475,4988567.818634 487703.051430,4988568.240184 487703.060923,4988573.161397 487694.265292,4988573.333893 487693.905365,4988623.480040 487709.645970,4988623.138626 487708.492710,4988666.209953 487748.623465,4988667.365787"/>