<?xml version="1.0" encoding="iso-8859-1"?>

<configuration xmlns:xsi="http://www.w3.org/2001/XMLSchema-instance" csi:noNamespaceSchemaLocation="http://sumo.sf.net/xsd/sumoConfiguration.xsd">

	<input>
		<net-file value="highway.net.xml"/>
		<route-files value="highway.rou.xml"/>
	</input>
	
	<time>
		<begin value="0"/>
		<end value="1000"/>
	</time>
</configuration>