<?xml version="1.0" encoding="UTF-8"?>

<!-- netconvert -_node-files=two_vehicles.nod.xml -_edge-files=two_vehicles.edg.xml -o two_vehicles.net.xml -->
<!-- generated on 2021-11-07 22:02:36 by Eclipse SUMO netconvert Version 1.10.0
<configuration xmlns:xsi="http://www.w3.org/2001/XMLSchema-instance" xsi:noNamespaceSchemaLocation="http://sumo.dlr.de/xsd/netconvertConfiguration.xsd">

    <input>
        <node-files value="two_vehicles.nod.xml"/>
        <edge-files value="two_vehicles.edg.xml"/>
    </input>

    <output>
        <output-file value="two_vehicles.net.xml"/>
    </output>

    <report>
        <aggregate-warnings value="5"/>
    </report>

</configuration>
-->

<net version="1.9" junctionCornerDetail="5" limitTurnSpeed="5.50" xmlns:xsi="http://www.w3.org/2001/XMLSchema-instance" xsi:noNamespaceSchemaLocation="http://sumo.dlr.de/xsd/net_file.xsd">

    <location netOffset="0.00,-1000.00" convBoundary="0.00,0.00,1500.00,0.00" origBoundary="0.00,1000.00,1500.00,1000.00" projParameter="!"/>

    <edge id=":2_0" function="internal">
        <lane id=":2_0_0" index="0" speed="14.00" length="0.10" shape="500.00,-4.80 500.00,-4.80"/>
        <lane id=":2_0_1" index="1" speed="14.00" length="0.10" shape="500.00,-1.60 500.00,-1.60"/>
    </edge>
    <edge id=":3_0" function="internal">
        <lane id=":3_0_0" index="0" speed="14.00" length="0.10" shape="1000.00,-4.80 1000.00,-4.80"/>
        <lane id=":3_0_1" index="1" speed="14.00" length="0.10" shape="1000.00,-1.60 1000.00,-1.60"/>
    </edge>

    <edge id="e1" from="1" to="2" priority="2">
        <lane id="e1_0" index="0" speed="14.00" length="500.00" shape="0.00,-4.80 500.00,-4.80"/>
        <lane id="e1_1" index="1" speed="14.00" length="500.00" shape="0.00,-1.60 500.00,-1.60"/>
    </edge>
    <edge id="e2" from="2" to="3" priority="2">
        <lane id="e2_0" index="0" speed="14.00" length="500.00" shape="500.00,-4.80 1000.00,-4.80"/>
        <lane id="e2_1" index="1" speed="14.00" length="500.00" shape="500.00,-1.60 1000.00,-1.60"/>
    </edge>
    <edge id="e3" from="3" to="4" priority="2">
        <lane id="e3_0" index="0" speed="14.00" length="500.00" shape="1000.00,-4.80 1500.00,-4.80"/>
        <lane id="e3_1" index="1" speed="14.00" length="500.00" shape="1000.00,-1.60 1500.00,-1.60"/>
    </edge>

    <junction id="1" type="dead_end" x="0.00" y="0.00" incLanes="" intLanes="" shape="0.00,0.00 0.00,-6.40"/>
    <junction id="2" type="priority" x="500.00" y="0.00" incLanes="e1_0 e1_1" intLanes=":2_0_0 :2_0_1" shape="500.00,0.00 500.00,-6.40 500.00,0.00">
        <request index="0" response="00" foes="00" cont="0"/>
        <request index="1" response="00" foes="00" cont="0"/>
    </junction>
    <junction id="3" type="priority" x="1000.00" y="0.00" incLanes="e2_0 e2_1" intLanes=":3_0_0 :3_0_1" shape="1000.00,0.00 1000.00,-6.40 1000.00,0.00">
        <request index="0" response="00" foes="00" cont="0"/>
        <request index="1" response="00" foes="00" cont="0"/>
    </junction>
    <junction id="4" type="dead_end" x="1500.00" y="0.00" incLanes="e3_0 e3_1" intLanes="" shape="1500.00,-6.40 1500.00,0.00"/>

    <connection from="e1" to="e2" fromLane="0" toLane="0" via=":2_0_0" dir="s" state="M"/>
    <connection from="e1" to="e2" fromLane="1" toLane="1" via=":2_0_1" dir="s" state="M"/>
    <connection from="e2" to="e3" fromLane="0" toLane="0" via=":3_0_0" dir="s" state="M"/>
    <connection from="e2" to="e3" fromLane="1" toLane="1" via=":3_0_1" dir="s" state="M"/>

    <connection from=":2_0" to="e2" fromLane="0" toLane="0" dir="s" state="M"/>
    <connection from=":2_0" to="e2" fromLane="1" toLane="1" dir="s" state="M"/>
    <connection from=":3_0" to="e3" fromLane="0" toLane="0" dir="s" state="M"/>
    <connection from=":3_0" to="e3" fromLane="1" toLane="1" dir="s" state="M"/>

</net>
