<?xml version="1.0" encoding="UTF-8"?>

<!-- generated on 2021-11-19 22:24:25 by Eclipse SUMO polyconvert Version 1.10.0
<configuration xmlns:xsi="http://www.w3.org/2001/XMLSchema-instance" xsi:noNamespaceSchemaLocation="http://sumo.dlr.de/xsd/polyconvertConfiguration.xsd">

    <input>
        <osm-files value="highway_small/highway_small.osm"/>
    </input>

    <output>
        <output-file value="highway_small/highway_small.poly"/>
    </output>

    <projection>
        <proj.scale value="1"/>
        <proj.utm value="true"/>
    </projection>

    <processing>
        <poi-layer-offset value="5"/>
    </processing>

</configuration>
-->

<additional xmlns:xsi="http://www.w3.org/2001/XMLSchema-instance" xsi:noNamespaceSchemaLocation="http://sumo.dlr.de/xsd/additional_file.xsd">
    <location netOffset="0.00,0.00" convBoundary="460074.26,4967847.70,465892.91,4984150.50" origBoundary="-93.506331,44.863227,-93.432310,45.009894" projParameter="+proj=utm +zone=15 +ellps=WGS84 +datum=WGS84 +units=m +no_defs"/>

    <poly id="109967355" type="tourism" color="207,245,201" fill="1" layer="-2.00" shape="464399.000501,4977970.093160 464486.567470,4978015.886415 464493.233131,4978023.048033 464535.226613,4978068.195269 464679.834542,4978223.665202 464727.597536,4978407.244260 464699.913308,4978503.145400 464626.197674,4978570.128917 464628.186992,4978757.237846 464628.189818,4978757.748845 464624.455895,4978842.686686 464566.071270,4978851.686072 464544.561282,4978905.328471 464405.422297,4978905.590457 464403.951267,4979039.451059 464560.368347,4979036.560369 464561.250275,4979083.268846 464561.839353,4979114.137506 464622.722184,4979118.066218 464625.767494,4979118.260441 464651.845145,4979119.071597 464668.615053,4979121.034075 464691.454943,4979122.507606 464703.076047,4979123.254401 464752.002530,4979185.828127 464782.922617,4979225.372432 464797.187979,4979225.138348 464976.431580,4979222.187696 464926.740416,4979121.834765 464939.670779,4979096.713060 464973.912914,4979030.182465 464807.075933,4978919.619740 464795.149609,4978869.228325 464880.487054,4978844.985823 464911.854152,4978778.992843 464891.893071,4978767.682357 464880.381646,4978761.169043 464791.329106,4978745.450712 464789.725309,4978659.009352 464860.082647,4978632.405135 464920.194258,4978641.606624 464972.614420,4978656.338641 465014.718480,4978697.122549 465051.980234,4978727.968429 465074.663210,4978772.680386 465093.046096,4978786.799519 465093.652947,4978812.724589 465100.901903,4978812.873876 465101.245349,4978763.081511 465101.449915,4978734.085934 465101.532473,4978721.754506 465129.315429,4978612.668222 465082.127270,4978568.100942 465018.702655,4978479.608996 464947.153158,4978379.786597 464858.329045,4978166.837118 464798.131767,4978022.506971 464730.935916,4977858.308687 464676.879138,4977828.468306 464618.968473,4977796.494551 464620.916480,4977702.290733 464496.215495,4977569.807171 464399.527395,4977571.522068 464399.530486,4977572.077500 464399.474219,4977614.414142 464399.387102,4977675.302961 464399.378092,4977685.023371 464399.375880,4977688.878201 464399.236006,4977789.892974 464399.057340,4977927.867580 464399.000501,4977970.093160"/>
    <poly id="165309031" type="amenity" color="237,199,199" fill="1" layer="-1.00" shape="465144.167586,4979333.283105 465149.394445,4979338.742457 465187.492165,4979341.423244 465191.984908,4979346.764429 465191.888039,4979353.596990 465194.270011,4979356.550124 465192.889210,4979368.011018 465182.650070,4979367.511320 465182.808490,4979373.431553 465168.364091,4979372.588182 465168.648315,4979375.541627 465163.261108,4979375.382126 465157.983644,4979369.312043 465157.825427,4979364.880415 465143.775307,4979364.034951 465138.771140,4979360.362938 465138.782184,4979337.800502 465144.167586,4979333.283105"/>
    <poly id="165309031#1" type="building" color="255,230,230" fill="1" layer="-1.00" shape="465144.167586,4979333.283105 465149.394445,4979338.742457 465187.492165,4979341.423244 465191.984908,4979346.764429 465191.888039,4979353.596990 465194.270011,4979356.550124 465192.889210,4979368.011018 465182.650070,4979367.511320 465182.808490,4979373.431553 465168.364091,4979372.588182 465168.648315,4979375.541627 465163.261108,4979375.382126 465157.983644,4979369.312043 465157.825427,4979364.880415 465143.775307,4979364.034951 465138.771140,4979360.362938 465138.782184,4979337.800502 465144.167586,4979333.283105"/>
    <poly id="165309052" type="parking" color="184,184,179" fill="1" layer="-1.00" shape="465153.601149,4979152.677162 465153.600419,4979158.331645 465137.763829,4979158.262446 465137.786306,4979204.331329 465143.575131,4979204.355313 465143.579827,4979208.110128 465248.535973,4979208.594170 465248.534612,4979202.539776 465254.536427,4979202.573812 465254.519279,4979158.782253 465248.635719,4979158.747573 465248.636653,4979153.115309 465153.601149,4979152.677162"/>
    <poly id="165309061" type="parking" color="184,184,179" fill="1" layer="-1.00" shape="465209.404616,4979413.212513 465226.708009,4979409.041376 465276.403282,4979424.301659 465285.155749,4979393.571080 465309.072626,4979398.984652 465317.537284,4979409.658909 465306.237092,4979456.311353 465380.136655,4979482.172428 465390.750755,4979502.444425 465388.729295,4979517.985746 465382.536626,4979537.993251 465371.344087,4979555.061741 465365.673782,4979573.944427 465365.225595,4979588.744041 465363.458320,4979601.695599 465349.898049,4979616.921756 465340.712890,4979642.022341 465355.798951,4979646.428606 465336.975043,4979711.851567 465159.844887,4979663.090547 465158.354792,4979651.578631 465158.208916,4979621.918387 465163.816393,4979597.414696 465166.960877,4979572.435634 465184.171131,4979575.863440 465189.260977,4979546.063600 465175.851687,4979542.626183 465184.973438,4979505.972344 465195.141043,4979468.746270 465201.409127,4979439.506591 465206.528371,4979415.072259 465209.404616,4979413.212513"/>
    <poly id="169191584" type="industrial" color="209,209,204" fill="1" layer="-3.00" shape="463773.446826,4980353.157933 463928.711605,4980348.791559 463985.902268,4980378.163516 463999.729920,4980411.268316 464008.860284,4980601.603637 464015.723065,4980830.389091 464011.789971,4980902.020157 463989.337213,4980987.741862 463970.542235,4981062.078481 463957.290094,4981129.396308 463956.433624,4981198.399470 463959.355441,4981276.113046 463948.431568,4981317.222633 463916.503930,4981370.670785 464055.899220,4981470.322076 464136.679217,4981507.427863 464269.964048,4981513.657601 464388.336749,4981512.130224 464449.073084,4981512.225239 464484.656918,4981517.348578 464530.284901,4981531.070295 464568.123336,4981537.625756 464621.287093,4981529.876982 464724.556016,4981501.511158 464766.181654,4981500.048372 464761.844339,4981747.093040 464828.898285,4981746.723546 464824.850874,4982285.868113 464896.277289,4982286.086186 464897.570515,4982441.083745 464914.579362,4982466.618890 464920.376366,4982524.642990 464993.111366,4982523.932877 465026.339163,4982510.164472 465055.704296,4982512.170015 465146.343974,4982541.002676 465289.226591,4982587.160336 465390.219545,4982625.827237 465222.110948,4982839.467726 465170.591454,4982935.819639 465079.840215,4983111.849547 464973.749480,4983312.427145 464831.495374,4983583.948334 464719.619038,4983744.391897 464630.261386,4983830.470693 464541.389902,4983892.974588 464409.859538,4983970.559158 464196.837665,4984098.382857 464093.045347,4984150.500921 464023.937954,4983980.587437 464003.774057,4983919.556598 463994.216102,4983763.283237 463991.683544,4983533.605834 463994.492326,4983372.019342 463980.653022,4983225.379630 463961.752178,4983060.427433 463957.502203,4982966.557421 463982.759044,4982830.173126 464015.924901,4982722.128107 464020.850609,4982661.844711 463978.818391,4982571.687053 463929.424054,4982492.924719 463894.225016,4982405.795137 463873.064527,4982279.715680 463841.656660,4982041.037204 463803.360201,4981680.553728 463798.840198,4981539.538655 463807.903431,4981442.982886 463843.180155,4981324.005095 463875.023455,4981255.704244 463889.370034,4981217.630178 463890.375832,4981176.576535 463879.601134,4981133.845353 463852.046691,4981083.788241 463815.682879,4981011.063109 463796.477610,4980958.337228 463790.716223,4980871.041610 463785.526177,4980720.410079 463784.779612,4980698.585029 463805.971764,4980664.837886 463801.230557,4980539.110331 463797.381603,4980460.957783 463780.779561,4980429.613249 463773.446826,4980353.157933"/>
    <poly id="22987971" type="commercial" color="209,209,204" fill="0" layer="-3.00" shape="462798.733525,4979919.349118 462774.152550,4979898.807156 462756.047670,4979890.803004 462736.778059,4979885.916227 462716.891835,4979883.477096 462709.696288,4979882.830305 462689.223846,4979882.638709 462664.224764,4979882.406961 462636.978131,4979882.155119 462615.788041,4979881.956844 462584.225654,4979881.319433 462574.432167,4979882.765394 462564.894373,4979887.475937 462553.977203,4979894.982948 462545.057012,4979886.658976 462531.265590,4979881.396341 462514.919770,4979878.925977 462434.151907,4979878.544705 462405.723072,4979878.411887 462401.779755,4979878.335097 462286.633861,4979875.925056 462257.776434,4979875.328844 462248.675233,4979875.149294 462130.141941,4979874.683945 462092.237439,4979875.064134 462013.920864,4979875.840086 462012.793243,4979875.846787 461943.396869,4979875.537458 461916.884284,4979875.417624 461863.160682,4979875.749014 461834.115334,4979875.389125 461816.237458,4979875.240379 461742.523438,4979874.248042 461689.892236,4979873.963351 461668.009197,4979873.950115 461609.567658,4979873.912002 461490.303082,4979873.840615 461484.280189,4979874.143519 461441.789036,4979876.310436 461427.081055,4979877.443422 461403.158863,4979879.276396 461385.635348,4979881.659585 461371.982500,4979885.141450 461367.569568,4979886.956680 461361.308122,4979889.538504 461350.391231,4979895.558968 461336.257273,4979906.842396 461325.887061,4979918.491902 461317.224799,4979933.508252 461296.463918,4979975.537390"/>
    <poly id="241875751" type="building" color="255,230,230" fill="1" layer="-1.00" shape="463386.230040,4980383.048115 463412.315463,4980375.055748 463413.411965,4980377.893388 463457.576218,4980364.076584 463458.374347,4980367.138118 463486.108064,4980357.792436 463484.533486,4980354.079901 463489.956194,4980352.304802 463481.723356,4980324.568105 463476.449628,4980324.820420 463475.654436,4980320.892361 463448.066638,4980329.581818 463447.418702,4980325.208558 463403.265457,4980340.991667 463401.849797,4980337.500422 463374.159792,4980346.213004 463375.787920,4980351.002784 463373.962450,4980351.679787 463370.996095,4980352.785473 463380.124687,4980379.894794 463385.085703,4980378.744358 463386.230040,4980383.048115"/>
    <poly id="241875773" type="parking" color="184,184,179" fill="1" layer="-1.00" shape="463498.930400,4980374.560515 463495.294076,4980375.714405 463496.630811,4980380.583643 463486.852703,4980383.239013 463484.613394,4980379.108131 463453.444794,4980387.584737 463455.402354,4980393.461340 463441.162935,4980397.775321 463439.267933,4980391.809491 463396.507854,4980407.073669 463397.565955,4980411.466793 463379.347420,4980419.014218 463375.992798,4980414.278765 463282.203819,4980464.329934 463289.817356,4980477.472647 463257.121592,4980494.490746 463264.205501,4980508.769598 463332.479096,4980548.270152 463360.495869,4980537.578092 463370.922167,4980547.638677 463417.997582,4980497.133915 463407.847050,4980485.660825 463419.929536,4980470.983257 463432.224514,4980483.788291 463509.390105,4980402.895517 463503.889952,4980398.005613 463510.065784,4980394.182166 463498.930400,4980374.560515"/>
    <poly id="241875776" type="water" color="181,209,209" fill="1" layer="-4.00" shape="463077.283646,4980234.142152 463077.485025,4980215.766613 463105.565715,4980184.543553 463139.014895,4980170.797526 463158.234679,4980165.876499 463183.160906,4980181.041150 463207.093592,4980185.269202 463244.598061,4980173.244509 463267.829930,4980163.923777 463298.556031,4980162.003159 463329.201784,4980146.074639 463356.658283,4980115.745008 463381.374082,4980092.852043 463412.695568,4980087.429217 463436.035955,4980095.605229 463444.870462,4980120.916649 463445.070579,4980155.908998 463451.504137,4980194.365052 463467.752408,4980213.090890 463484.678395,4980241.422222 463484.813316,4980265.039285 463466.891927,4980279.139092 463424.422709,4980291.635255 463361.463590,4980303.371508 463336.825127,4980310.722563 463307.598750,4980304.547007 463283.559457,4980307.751152 463254.041850,4980304.421431 463229.276461,4980289.688835 463206.657965,4980271.233552 463179.959468,4980271.387295 463128.737119,4980272.771258 463100.725914,4980261.346161 463084.517161,4980249.630829 463077.283646,4980234.142152"/>
    <poly id="241875778" type="parking" color="184,184,179" fill="1" layer="-1.00" shape="463514.890855,4980369.214807 463495.021289,4980315.527140 463612.452903,4980272.209901 463631.370853,4980323.714851 463514.890855,4980369.214807"/>
    <poly id="241875778#1" type="building" color="255,230,230" fill="1" layer="-1.00" shape="463514.890855,4980369.214807 463495.021289,4980315.527140 463612.452903,4980272.209901 463631.370853,4980323.714851 463514.890855,4980369.214807"/>
    <poly id="241875780" type="parking" color="184,184,179" fill="1" layer="-1.00" shape="463198.782397,4980407.120403 463249.610855,4980445.754068 463217.887050,4980490.550526 463165.350257,4980452.360212 463198.782397,4980407.120403"/>
    <poly id="241875780#1" type="building" color="255,230,230" fill="1" layer="-1.00" shape="463198.782397,4980407.120403 463249.610855,4980445.754068 463217.887050,4980490.550526 463165.350257,4980452.360212 463198.782397,4980407.120403"/>
    <poly id="241875783" type="water" color="181,209,209" fill="1" layer="-4.00" shape="463013.980276,4980186.383715 463014.865206,4980178.513383 463030.022394,4980169.238510 463065.710950,4980166.410456 463110.063912,4980157.833646 463156.295614,4980152.323523 463186.486981,4980165.713721 463211.683213,4980173.000611 463251.000875,4980152.655952 463284.213325,4980151.154224 463309.036323,4980148.378843 463336.855418,4980127.667479 463374.520058,4980089.825215 463358.593883,4980073.741717 463361.952975,4980064.090920 463359.091435,4980051.865154 463398.915126,4980012.266549 463426.252638,4980014.731811 463446.948944,4979996.239071 463471.097628,4979982.981248 463505.276412,4979987.596239 463538.301996,4980007.092996 463556.146245,4980033.241901 463561.223637,4980052.453815 463534.478756,4980098.542222 463530.943706,4980132.678262 463550.363433,4980162.750765 463564.706068,4980172.289425 463591.027303,4980161.208144 463605.590238,4980155.437379 463617.151048,4980168.058092 463617.327868,4980182.498841 463605.298564,4980213.617099 463570.965560,4980235.675280 463553.721321,4980260.713391 463534.260983,4980278.754386 463402.812030,4980312.755059 463303.970526,4980348.315282 463265.645011,4980377.841118 463226.233085,4980381.567106 463181.458073,4980370.015952 463136.650093,4980352.777464 463085.414544,4980351.762302 463067.049981,4980343.558819 463041.929345,4980294.713085 463035.940473,4980276.295575 463023.258343,4980233.576846 463013.980276,4980186.383715"/>
    <poly id="241875784" type="parking" color="184,184,179" fill="1" layer="-1.00" shape="463159.184928,4980018.809414 463158.401577,4979919.832309 463238.971086,4979918.757472 463239.367476,4980026.079692 463166.915833,4980026.185707 463159.184928,4980018.809414"/>
    <poly id="241875784#1" type="building" color="255,230,230" fill="1" layer="-1.00" shape="463159.184928,4980018.809414 463158.401577,4979919.832309 463238.971086,4979918.757472 463239.367476,4980026.079692 463166.915833,4980026.185707 463159.184928,4980018.809414"/>
    <poly id="242864966" type="parking" color="184,184,179" fill="1" layer="-1.00" shape="464959.624109,4979434.906077 464960.863450,4979353.103697 464964.592686,4979338.530468 464978.749493,4979296.927461 464986.231456,4979273.479819 464989.594838,4979268.406806 464974.786155,4979229.906355 464968.848556,4979227.194961 464850.818649,4979228.475939 464850.419418,4979233.321659 464844.925033,4979233.774008 464845.096604,4979264.978253 464839.172909,4979264.799755 464840.427687,4979415.530933 464845.295677,4979415.926306 464845.824925,4979436.164004 464852.601246,4979436.537781 464858.772741,4979444.524559 464954.158967,4979442.101340 464953.925220,4979438.303342 464959.624109,4979434.906077"/>
    <poly id="242864970" type="parking" color="184,184,179" fill="1" layer="-1.00" shape="464893.205000,4979397.322087 464947.572468,4979397.234855 464947.743486,4979428.427999 464860.370902,4979426.808020 464859.369226,4979359.348540 464859.486826,4979265.954502 464879.466197,4979244.970910 464963.653918,4979244.931170 464969.163126,4979245.745267 464974.760290,4979264.055562 464970.621051,4979280.097417 464892.993001,4979281.156405 464884.793846,4979290.266377 464885.341543,4979389.988891 464893.205000,4979397.322087"/>
    <poly id="256859288" type="building" color="255,230,230" fill="1" layer="-1.00" shape="464134.674719,4980481.574166 464163.394572,4980480.679870 464163.316401,4980466.738466 464166.265286,4980466.721932 464165.213392,4980411.304846 464161.535307,4980412.058666 464162.198306,4980398.113108 464133.101324,4980397.909727 464133.183673,4980412.584302 464129.874121,4980412.969473 464131.286961,4980468.017933 464134.233788,4980467.634798 464134.674719,4980481.574166"/>
    <poly id="256859350" type="building" color="255,230,230" fill="1" layer="-1.00" shape="464045.230775,4980552.174759 464058.484812,4980552.100209 464058.470319,4980549.522993 464110.751158,4980548.862601 464120.743115,4980557.615967 464120.419935,4980566.060652 464154.664794,4980566.235092 464154.318551,4980569.169821 464168.676393,4980569.089308 464168.793667,4980590.006971 464154.435871,4980590.087484 464154.081807,4980593.033365 464103.636373,4980593.316500 464095.806758,4980576.474739 464058.985752,4980576.681700 464058.965136,4980573.015832 464044.603176,4980572.363417 464045.230775,4980552.174759"/>
    <poly id="280667310" type="parking" color="184,184,179" fill="1" layer="-1.00" shape="464762.860185,4979976.663133 464751.763882,4979970.703223 464754.698630,4979965.221405 464749.661889,4979962.749649 464769.542470,4979927.168960 464769.303753,4979925.348397 464763.378967,4979926.291993 464753.300661,4979877.578975 464758.538846,4979876.528066 464757.605073,4979871.645247 464804.369266,4979870.587755 464804.051114,4979875.821853 464808.279607,4979876.142952 464800.476934,4979909.835117 464762.860185,4979976.663133"/>
    <poly id="280667365" type="parking" color="184,184,179" fill="1" layer="-1.00" shape="464924.239536,4979495.444222 464917.799406,4979497.401416 464921.945173,4979509.909626 464915.869672,4979517.952557 464910.822381,4979519.357774 464892.506238,4979461.080502 464899.034728,4979459.411632 464906.619372,4979459.070052 464908.805549,4979468.000801 464914.909110,4979466.500915 464924.239536,4979495.444222"/>
    <poly id="280667366" type="parking" color="184,184,179" fill="1" layer="-1.00" shape="464930.987405,4979528.023244 464940.774121,4979474.824088 464946.890655,4979475.690379 464947.545183,4979469.932326 464954.797297,4979470.792398 464954.373952,4979477.004652 464960.256705,4979478.383251 464951.988940,4979522.420229 464945.902777,4979521.331587 464944.358802,4979530.271694 464930.987405,4979528.023244"/>
    <poly id="280667367" type="parking" color="184,184,179" fill="1" layer="-1.00" shape="464648.330684,4979566.039741 464676.669693,4979586.812478 464715.962880,4979541.981708 464708.733757,4979535.278440 464725.121639,4979515.369525 464715.922954,4979503.311465 464759.709246,4979472.275790 464752.775089,4979463.293500 464730.432358,4979477.380741 464721.867665,4979484.471107 464709.361577,4979496.149042 464648.330684,4979566.039741"/>
    <poly id="280667370" type="parking" color="184,184,179" fill="1" layer="-1.00" shape="464912.145779,4979533.458948 464913.650821,4979533.239617 464916.530442,4979533.457103 464919.180558,4979534.964495 464920.956621,4979536.709972 464922.250770,4979539.735630 464930.800796,4979537.133653 464934.964026,4979551.396999 464941.018004,4979549.497484 464947.580178,4979571.246262 464948.016036,4979577.387153 464947.328609,4979584.334051 464945.452195,4979591.609630 464938.798589,4979589.135481 464936.084813,4979600.459333 464929.180169,4979611.161854 464920.240437,4979620.331397 464910.414072,4979627.439543 464899.499862,4979634.620332 464892.246470,4979643.547368 464886.378515,4979654.888566 464883.444245,4979666.246981 464883.157075,4979677.135388 464882.427894,4979686.515397 464880.176430,4979694.404053 464885.266698,4979696.542348 464880.802234,4979704.965284 464876.184182,4979711.267245 464871.309587,4979716.804099 464864.397944,4979721.885573 464861.602549,4979716.890773 464858.625128,4979718.951197 464848.191483,4979711.665504 464843.393258,4979700.971694 464839.614961,4979689.328012 464802.104006,4979569.434922 464912.145779,4979533.458948"/>
    <poly id="280667371" type="parking" color="184,184,179" fill="1" layer="-1.00" shape="464787.357826,4979569.571671 464790.359883,4979570.543838 464792.853215,4979572.218676 464829.056656,4979689.497181 464832.072268,4979698.678852 464823.129072,4979697.139467 464825.116745,4979702.949652 464830.510047,4979701.398045 464836.182912,4979719.130147 464830.987803,4979720.869512 464835.653742,4979736.185390 464841.298442,4979734.465773 464842.326721,4979743.636161 464839.259835,4979765.271165 464833.838531,4979764.590008 464831.193494,4979768.292751 464826.336650,4979771.307796 464821.297281,4979772.679716 464815.424976,4979773.156394 464787.096506,4979769.813034 464786.088103,4979775.717474 464729.195573,4979767.788229 464729.930749,4979762.396301 464727.122133,4979762.167399 464735.302044,4979698.256554 464743.521051,4979678.581596 464745.612628,4979666.039097 464741.957897,4979642.519256 464737.078894,4979628.659902 464739.249366,4979608.973872 464743.640888,4979598.784907 464760.749565,4979579.460883 464763.695294,4979577.367262 464767.693328,4979575.901056 464787.357826,4979569.571671"/>
    <poly id="286995451" type="building" color="255,230,230" fill="1" layer="-1.00" shape="463216.753018,4980594.915535 463233.534583,4980580.299434 463180.342884,4980530.937056 463130.517235,4980533.512761 463092.490982,4980587.222364 463051.880392,4980592.045055 463051.999652,4980612.673892 463079.093182,4980610.173304 463104.878474,4980607.780365 463146.758664,4980557.870127 463161.758153,4980556.928255 463173.589119,4980556.193530 463216.753018,4980594.915535"/>
    <poly id="286995452" type="building" color="255,230,230" fill="1" layer="-1.00" shape="463008.825063,4980570.898058 463023.463049,4980583.799844 462996.036132,4980614.530725 462972.048096,4980615.469513 462927.816556,4980617.214547 462888.513971,4980583.815509 462887.962799,4980556.790357 462887.447469,4980531.864610 462917.150005,4980496.543128 462934.873201,4980512.481806 462909.730977,4980540.144813 462913.775697,4980576.792360 462934.591447,4980595.779194 462986.718844,4980593.188624 463008.825063,4980570.898058"/>
    <poly id="286995453" type="building" color="255,230,230" fill="1" layer="-1.00" shape="462886.465205,4980494.421662 462873.343013,4980479.211804 462899.223578,4980446.967438 462894.302955,4980391.217405 462928.594179,4980354.336304 462954.194824,4980352.565948 462976.879174,4980351.001440 463010.786583,4980379.844199 463013.403844,4980435.607637 462991.164368,4980434.969849 462988.617672,4980391.425974 462967.810312,4980373.971966 462940.223195,4980377.186856 462918.872527,4980397.951323 462923.805262,4980454.467827 462886.465205,4980494.421662"/>
    <poly id="286997077" type="building" color="255,230,230" fill="1" layer="-1.00" shape="462976.704172,4980493.665000 463003.800089,4980518.736773 462990.760611,4980532.731921 462963.664765,4980507.671310 462976.704172,4980493.665000"/>
    <poly id="288237697" type="building" color="255,230,230" fill="1" layer="-1.00" shape="463376.826640,4980386.412486 463381.382017,4980383.275851 463380.124687,4980379.894794 463370.996095,4980352.785473 463373.962450,4980351.679787 463368.071299,4980350.136063 463362.296838,4980349.691472 463358.456345,4980350.991028 463356.297305,4980352.625328 463353.213279,4980356.586723 463352.000389,4980360.959534 463347.672141,4980363.828270 463346.735741,4980362.789389 463343.048894,4980364.754617 463340.794735,4980360.801614 463314.819813,4980374.303729 463316.077817,4980377.795860 463306.024491,4980383.319222 463275.525924,4980398.580484 463278.029744,4980402.065449 463253.265546,4980414.894319 463255.149028,4980418.827205 463251.600179,4980421.469345 463265.868860,4980446.971473 463270.197015,4980444.102681 463272.399634,4980448.689172 463297.467480,4980435.203196 463296.522022,4980432.586889 463336.453653,4980410.917230 463336.582180,4980407.206069 463359.647209,4980395.042699 463358.072566,4980391.330194 463366.273891,4980387.350577 463368.129127,4980389.117392 463376.826640,4980386.412486"/>
    <poly id="288237698" type="building" color="255,230,230" fill="1" layer="-1.00" shape="462877.325178,4980156.137209 462897.233794,4980155.799436 462897.892772,4980194.610656 462929.470453,4980194.083058 462929.830703,4980215.410358 462904.213828,4980215.836704 462904.790491,4980249.982601 462887.578643,4980250.271369 462886.858634,4980207.750075 462837.982391,4980208.578397 462837.283377,4980167.012364 462853.848935,4980166.738328 462854.277857,4980191.697889 462877.923626,4980191.293901 462877.325178,4980156.137209"/>
    <poly id="288471714" type="parking" color="184,184,179" fill="1" layer="-1.00" shape="464005.354412,4980667.911042 463998.163156,4980429.884783 463989.354860,4980418.558748 463970.115527,4980410.190978 463812.701563,4980414.901802 463789.303014,4980437.918954 463798.450791,4980450.653643 463800.005512,4980478.739610 463807.917553,4980671.492295 463792.414382,4980704.573982 463809.202585,4980979.150169 463820.534556,4981001.815124 463851.308138,4981064.729282 463862.493438,4981067.087791 463863.259503,4981072.893494 463956.760080,4981068.977162 463957.206855,4981062.920209 463964.730288,4981060.456005 463968.591162,4981055.835086 463968.565609,4981009.354961 463973.344080,4980994.075294 463980.388624,4980994.757670 464001.319094,4980915.954334 464002.257182,4980908.928131 464005.555775,4980891.246164 464007.237265,4980844.023243 464004.696304,4980782.049075 464002.013266,4980693.458444 464005.354412,4980667.911042"/>
    <poly id="299080998" type="building" color="255,230,230" fill="1" layer="-1.00" shape="463244.620096,4980093.425863 463271.373874,4980065.710533 463314.809590,4980107.364429 463288.055740,4980135.068470 463244.620096,4980093.425863"/>
    <poly id="299080999" type="building" color="255,230,230" fill="1" layer="-1.00" shape="463247.153441,4980032.078242 463286.399504,4979993.604265 463315.024997,4980022.612275 463275.786830,4980061.086033 463247.153441,4980032.078242"/>
    <poly id="299081001" type="building" color="255,230,230" fill="1" layer="-1.00" shape="463826.753040,4980477.655010 463825.268872,4980443.903026 463837.416128,4980443.278833 463837.393312,4980439.246379 463889.111696,4980436.565521 463889.137617,4980441.153409 463910.489131,4980439.566416 463910.467365,4980435.711702 463961.460786,4980434.501916 463961.851038,4980437.987954 463972.156413,4980437.929855 463973.823221,4980472.047433 463927.433704,4980473.042283 463924.653363,4980469.391992 463916.210075,4980473.849945 463912.310707,4980468.917328 463902.032297,4980473.741151 463900.720569,4980470.449175 463891.333582,4980475.345743 463888.753642,4980470.883375 463881.961964,4980474.587736 463826.753040,4980477.655010"/>
    <poly id="307080153" type="building" color="255,230,230" fill="1" layer="-1.00" shape="464524.956446,4980017.104963 464573.710215,4980016.679053 464573.263664,4979994.441267 464572.412309,4979954.653474 464575.126927,4979947.895255 464575.249024,4979932.930728 464549.446908,4979932.862697 464541.821131,4979929.949992 464535.059301,4979932.098217 464508.420475,4979933.301421 464508.844325,4979972.713876 464521.327967,4979972.855648 464522.331998,4980001.733532 464525.081621,4980001.296129 464524.956446,4980017.104963"/>
    <poly id="307080153#1" type="shop" color="237,199,255" fill="1" layer="-1.00" shape="464524.956446,4980017.104963 464573.710215,4980016.679053 464573.263664,4979994.441267 464572.412309,4979954.653474 464575.126927,4979947.895255 464575.249024,4979932.930728 464549.446908,4979932.862697 464541.821131,4979929.949992 464535.059301,4979932.098217 464508.420475,4979933.301421 464508.844325,4979972.713876 464521.327967,4979972.855648 464522.331998,4980001.733532 464525.081621,4980001.296129 464524.956446,4980017.104963"/>
    <poly id="307080513" type="building" color="255,230,230" fill="1" layer="-1.00" shape="464997.078080,4979517.429662 465002.371271,4979517.722845 465004.591647,4979514.200245 465015.980633,4979514.460075 465029.917149,4979484.500610 464999.140190,4979483.558128 464997.078080,4979517.429662"/>
    <poly id="307080513#1" type="shop" color="237,199,255" fill="1" layer="-1.00" shape="464997.078080,4979517.429662 465002.371271,4979517.722845 465004.591647,4979514.200245 465015.980633,4979514.460075 465029.917149,4979484.500610 464999.140190,4979483.558128 464997.078080,4979517.429662"/>
    <poly id="307080834" type="amenity" color="237,199,199" fill="1" layer="-1.00" shape="465130.366502,4979276.891321 465153.535054,4979278.020325 465154.957650,4979256.872150 465147.139393,4979256.359314 465147.103787,4979249.827418 465139.848471,4979249.866971 465139.045118,4979255.847992 465131.647070,4979255.743916 465130.366502,4979276.891321"/>