<?xml version="1.0" encoding="UTF-8"?>
<!-- generated on 2021-11-19 16:15:13.326581 by $Id$ v1_10_0+0000-83496a5972
  options: -n ../../../../Users/btang/Documents/sumo/downtown.net.xml -e 600 -o ../../../../Users/btang/Documents/sumo/downtown.trips.xml
-->
<routes xmlns:xsi="http://www.w3.org/2001/XMLSchema-instance" xsi:noNamespaceSchemaLocation="http://sumo.dlr.de/xsd/routes_file.xsd">
    <trip id="0" depart="0.00" from="5997290#1" to="-183239677#0"/>
    <trip id="1" depart="1.00" from="-6030944#4" to="-6020167#8"/>
    <trip id="2" depart="2.00" from="6025302#0" to="6018407#3"/>
    <trip id="3" depart="3.00" from="640047406#0" to="-37022655#4"/>
    <trip id="4" depart="4.00" from="175003438#3" to="-183239677#4"/>
    <trip id="5" depart="5.00" from="-6020167#10" to="37022565#0"/>
    <trip id="6" depart="6.00" from="-183239677#0" to="-6019401#14"/>
    <trip id="7" depart="7.00" from="6012438#4" to="377513080#2"/>
    <trip id="8" depart="8.00" from="-6020167#12" to="39784498#4"/>
    <trip id="9" depart="9.00" from="6032862#9" to="-127835385#14"/>
    <trip id="10" depart="10.00" from="6032862#6" to="6019401#8"/>
    <trip id="11" depart="11.00" from="-717163783#0" to="-421039811#1"/>
    <trip id="12" depart="12.00" from="728222328#5" to="-720180740#3"/>
    <trip id="13" depart="13.00" from="-37022655#2" to="-37022700"/>
    <trip id="14" depart="14.00" from="61853146#2" to="421035128#5"/>
    <trip id="15" depart="15.00" from="6032862#7" to="6022272#0"/>
    <trip id="16" depart="16.00" from="37022694#0" to="807719306#12"/>
    <trip id="17" depart="17.00" from="-807719306#5" to="39783373#3"/>
    <trip id="18" depart="18.00" from="6042783#4" to="458318073#3"/>
    <trip id="19" depart="19.00" from="636433967#3" to="39783723#2"/>
    <trip id="20" depart="20.00" from="6020167#11" to="-37022509#0"/>
    <trip id="21" depart="21.00" from="-6020167#5" to="-611155217#0"/>
    <trip id="22" depart="22.00" from="-37022574#3" to="-6022272#1"/>
    <trip id="23" depart="23.00" from="-37022669" to="-6041520#1"/>
    <trip id="24" depart="24.00" from="588049213#2" to="-807719306#3"/>
    <trip id="25" depart="25.00" from="-807719306#12" to="-6020167#0"/>
    <trip id="26" depart="26.00" from="-6030178#2" to="720180739#2"/>
    <trip id="27" depart="27.00" from="6012438#2" to="421039811#0"/>
    <trip id="28" depart="28.00" from="-458318073#3" to="6021330#1"/>
    <trip id="29" depart="29.00" from="-421039811#2" to="-807719307#6"/>
    <trip id="30" depart="30.00" from="807719307#2" to="5997290#0"/>
    <trip id="31" depart="31.00" from="39783373#8" to="6019401#0"/>
    <trip id="32" depart="32.00" from="61853127#1" to="6032862#0"/>
    <trip id="33" depart="33.00" from="-6020167#6" to="-183239677#6"/>
    <trip id="34" depart="34.00" from="-636433967#3" to="-6030944#4"/>
    <trip id="35" depart="35.00" from="-6019401#4" to="720180739#8"/>
    <trip id="36" depart="36.00" from="636434142#0" to="-636535949#2"/>
    <trip id="37" depart="37.00" from="6013254#0" to="127835385#15"/>
    <trip id="38" depart="38.00" from="720180737#16" to="290451868"/>
    <trip id="39" depart="39.00" from="-6030178#1" to="-6026843#15"/>
    <trip id="40" depart="40.00" from="39783441#2" to="-6030944#1"/>
    <trip id="41" depart="41.00" from="39784498#1" to="655031389"/>
    <trip id="42" depart="42.00" from="127835385#1" to="-6020167#5"/>
    <trip id="43" depart="43.00" from="819837317#0" to="37022573"/>
    <trip id="44" depart="44.00" from="-37022655#0" to="-37022509#1"/>
    <trip id="45" depart="45.00" from="-380591564#3" to="586851851#1"/>
    <trip id="46" depart="46.00" from="6032862#19" to="204861328#1"/>
    <trip id="47" depart="47.00" from="-37022522#2" to="-807719307#8"/>
    <trip id="48" depart="48.00" from="807719307#8" to="37022655#5"/>
    <trip id="49" depart="49.00" from="807719306#10" to="636433967#2"/>
    <trip id="50" depart="50.00" from="-127835385#19" to="6021005#3"/>
    <trip id="51" depart="51.00" from="6018407#7" to="37022688#4"/>
    <trip id="52" depart="52.00" from="-6030178#2" to="5997290#1"/>
    <trip id="53" depart="53.00" from="-380591564#4" to="225022520#2"/>
    <trip id="54" depart="54.00" from="234854835#0" to="728222328#2"/>
    <trip id="55" depart="55.00" from="636434104" to="-6030944#1"/>
    <trip id="56" depart="56.00" from="37022530#1" to="-5997290#0"/>
    <trip id="57" depart="57.00" from="720180737#14" to="636434103#1"/>
    <trip id="58" depart="58.00" from="-611155217#0" to="589308378"/>
    <trip id="59" depart="59.00" from="421039811#1" to="-421039810#2"/>
    <trip id="60" depart="60.00" from="6030178#5" to="37022694#0"/>
    <trip id="61" depart="61.00" from="6031428#4" to="37022655#6"/>
    <trip id="62" depart="62.00" from="-127835375#1" to="-642220900#2"/>
    <trip id="63" depart="63.00" from="-127835385#8" to="720180737#7"/>
    <trip id="64" depart="64.00" from="636535949#1" to="611155216#2"/>
    <trip id="65" depart="65.00" from="-636433967#0" to="-37022522#0"/>
    <trip id="66" depart="66.00" from="636434142#2" to="720180740#1"/>
    <trip id="67" depart="67.00" from="-37022581#2" to="37022509#9"/>
    <trip id="68" depart="68.00" from="-37022536#1" to="6030178#4"/>
    <trip id="69" depart="69.00" from="6030944#10" to="-39783723#3"/>
    <trip id="70" depart="70.00" from="35337043#2" to="380591564#4"/>
    <trip id="71" depart="71.00" from="-6030178#1" to="636434103#3"/>
    <trip id="72" depart="72.00" from="183239677#0" to="-6020167#11"/>
    <trip id="73" depart="73.00" from="37022700" to="6022272#0"/>
    <trip id="74" depart="74.00" from="-6019401#1" to="-636433967#9"/>
    <trip id="75" depart="75.00" from="807719307#7" to="6012438#4"/>
    <trip id="76" depart="76.00" from="225022519#0" to="37022581#2"/>
    <trip id="77" depart="77.00" from="-39783608#0" to="-6021089#0"/>
    <trip id="78" depart="78.00" from="-655031390#1" to="39784498#3"/>
    <trip id="79" depart="79.00" from="-6020167#7" to="-6020167#6"/>
    <trip id="80" depart="80.00" from="-37022559#2" to="586852276#2"/>
    <trip id="81" depart="81.00" from="-6020167#6" to="720180737#1"/>
    <trip id="82" depart="82.00" from="636433967#13" to="-37022574#0"/>
    <trip id="83" depart="83.00" from="-6021089#5" to="6016043#5"/>
    <trip id="84" depart="84.00" from="-6019401#7" to="-39784498#0"/>
    <trip id="85" depart="85.00" from="720180739#10" to="39783608#6"/>
    <trip id="86" depart="86.00" from="35337043#0" to="6032862#16"/>
    <trip id="87" depart="87.00" from="6032862#7" to="-6018407#8"/>
    <trip id="88" depart="88.00" from="-37022655#5" to="225022519#2"/>
    <trip id="89" depart="89.00" from="183239677#1" to="35337043#0"/>
    <trip id="90" depart="90.00" from="6021089#6" to="6016043#9"/>
    <trip id="91" depart="91.00" from="807719306#7" to="-37022702"/>
    <trip id="92" depart="92.00" from="127835385#13" to="-728222328#1"/>
    <trip id="93" depart="93.00" from="636433967#3" to="-6026843#3"/>
    <trip id="94" depart="94.00" from="-6018407#1" to="234854835#1"/>
    <trip id="95" depart="95.00" from="175003438#3" to="-6041520#10"/>
    <trip id="96" depart="96.00" from="-6026843#10" to="720180737#24"/>
    <trip id="97" depart="97.00" from="225022520#1" to="636433967#3"/>
    <trip id="98" depart="98.00" from="39783373#2" to="-37022509#3"/>
    <trip id="99" depart="99.00" from="819837318" to="611155216#5"/>
    <trip id="100" depart="100.00" from="807719306#0" to="720180737#4"/>
    <trip id="101" depart="101.00" from="61853147#0" to="-458318074#2"/>
    <trip id="102" depart="102.00" from="37022509#2" to="-6020167#13"/>
    <trip id="103" depart="103.00" from="127835385#11" to="-37022522#1"/>
    <trip id="104" depart="104.00" from="-807719306#6" to="807719306#8"/>
    <trip id="105" depart="105.00" from="-6030178#1" to="6032862#15"/>
    <trip id="106" depart="106.00" from="234854835#1" to="204861328#1"/>
    <trip id="107" depart="107.00" from="728222328#5" to="807719307#7"/>
    <trip id="108" depart="108.00" from="39783373#7" to="6021005#1"/>
    <trip id="109" depart="109.00" from="-421035128#4" to="-636433967#0"/>
    <trip id="110" depart="110.00" from="799599482" to="39783723#4"/>
    <trip id="111" depart="111.00" from="377513080#2" to="6026843#2"/>
    <trip id="112" depart="112.00" from="-37022509#7" to="39783756#1"/>
    <trip id="113" depart="113.00" from="37022559#1" to="61913728#2"/>
    <trip id="114" depart="114.00" from="-421035128#6" to="799596422#3"/>
    <trip id="115" depart="115.00" from="-37022574#3" to="-6018407#4"/>
    <trip id="116" depart="116.00" from="421035127#2" to="6018407#2"/>
    <trip id="117" depart="117.00" from="-6021089#1" to="-39783608#5"/>
    <trip id="118" depart="118.00" from="636837138#1" to="-6026843#15"/>
    <trip id="119" depart="119.00" from="421035127#2" to="458318073#3"/>
    <trip id="120" depart="120.00" from="175003438#1" to="39783756#1"/>
    <trip id="121" depart="121.00" from="37022655#0" to="720180739#1"/>
    <trip id="122" depart="122.00" from="-6019401#11" to="6020254#1"/>
    <trip id="123" depart="123.00" from="-6021089#5" to="127835385#15"/>
    <trip id="124" depart="124.00" from="6016043#7" to="-636433967#11"/>
    <trip id="125" depart="125.00" from="-636433967#3" to="6026843#5"/>
    <trip id="126" depart="126.00" from="-37022559#3" to="290451868"/>
    <trip id="127" depart="127.00" from="819837317#1" to="807719307#8"/>
    <trip id="128" depart="128.00" from="-37022565#0" to="-6020167#12"/>
    <trip id="129" depart="129.00" from="-6030178#1" to="720180739#0"/>
    <trip id="130" depart="130.00" from="636535950#1" to="636535949#3"/>
    <trip id="131" depart="131.00" from="-807719306#11" to="-421039811#3"/>
    <trip id="132" depart="132.00" from="611155216#2" to="6020167#11"/>
    <trip id="133" depart="133.00" from="421039811#3" to="807719307#0"/>
    <trip id="134" depart="134.00" from="6012675#3" to="-127835385#15"/>
    <trip id="135" depart="135.00" from="6041520#11" to="-636433967#10"/>
    <trip id="136" depart="136.00" from="6016043#12" to="720180739#4"/>
    <trip id="137" depart="137.00" from="-39783723#2" to="-39783608#1"/>
    <trip id="138" depart="138.00" from="-37022700" to="39783373#4"/>
    <trip id="139" depart="139.00" from="-6030944#10" to="421035128#6"/>
    <trip id="140" depart="140.00" from="6020254#1" to="-6019401#5"/>
    <trip id="141" depart="141.00" from="588049213#1" to="-6030944#10"/>
    <trip id="142" depart="142.00" from="37022509#6" to="720180737#1"/>
    <trip id="143" depart="143.00" from="61853146#1" to="-37022694#0"/>
    <trip id="144" depart="144.00" from="183239677#1" to="-6041520#0"/>
    <trip id="145" depart="145.00" from="-127835385#11" to="6030944#9"/>
    <trip id="146" depart="146.00" from="589308378" to="-6030944#0"/>
    <trip id="147" depart="147.00" from="6026843#1" to="39783373#3"/>
    <trip id="148" depart="148.00" from="183239677#4" to="-127835385#17"/>
    <trip id="149" depart="149.00" from="-37022566" to="636535950#4"/>
    <trip id="150" depart="150.00" from="717163783#1" to="377513080#3"/>
    <trip id="151" depart="151.00" from="611155216#2" to="39783756#0"/>
    <trip id="152" depart="152.00" from="-421035127#2" to="-39783723#2"/>
    <trip id="153" depart="153.00" from="-636433967#0" to="655031390#0"/>
    <trip id="154" depart="154.00" from="6032862#23" to="636433967#2"/>
    <trip id="155" depart="155.00" from="655031389" to="-6020167#10"/>
    <trip id="156" depart="156.00" from="-6026843#10" to="-380591564#4"/>
    <trip id="157" depart="157.00" from="6032862#1" to="636535950#5"/>
    <trip id="158" depart="158.00" from="127835385#16" to="458318074#1"/>
    <trip id="159" depart="159.00" from="-421035128#4" to="720180737#8"/>
    <trip id="160" depart="160.00" from="636433967#5" to="807719306#14"/>
    <trip id="161" depart="161.00" from="6036071#0" to="636535950#2"/>
    <trip id="162" depart="162.00" from="-175003438#3" to="6025302#2"/>
    <trip id="163" depart="163.00" from="-636535953" to="720180737#9"/>
    <trip id="164" depart="164.00" from="6032862#3" to="636433967#5"/>
    <trip id="165" depart="165.00" from="6036071#0" to="-6030944#3"/>
    <trip id="166" depart="166.00" from="6032862#15" to="-39783373#5"/>
    <trip id="167" depart="167.00" from="636434103#2" to="636433967#13"/>
    <trip id="168" depart="168.00" from="-6020167#14" to="6041520#4"/>
    <trip id="169" depart="169.00" from="234854835#4" to="-636433967#3"/>
    <trip id="170" depart="170.00" from="6032862#22" to="-6021089#2"/>
    <trip id="171" depart="171.00" from="-175003438#2" to="-6019401#1"/>
    <trip id="172" depart="172.00" from="-636535951#1" to="636433967#6"/>
    <trip id="173" depart="173.00" from="799599481" to="-6041520#10"/>
    <trip id="174" depart="174.00" from="5998625#1" to="127835385#2"/>
    <trip id="175" depart="175.00" from="807719306#5" to="37022688#3"/>
    <trip id="176" depart="176.00" from="720180739#4" to="-39783608#1"/>
    <trip id="177" depart="177.00" from="807719306#1" to="-5997290#0"/>
    <trip id="178" depart="178.00" from="799596422#4" to="-6030944#2"/>
    <trip id="179" depart="179.00" from="-380591564#2" to="225022520#2"/>
    <trip id="180" depart="180.00" from="6021089#6" to="-636535949#1"/>
    <trip id="181" depart="181.00" from="421039810#1" to="37022574#1"/>
    <trip id="182" depart="182.00" from="-807719307#1" to="39783723#1"/>
    <trip id="183" depart="183.00" from="-6026843#14" to="6020167#3"/>
    <trip id="184" depart="184.00" from="-127835375#3" to="720180737#3"/>
    <trip id="185" depart="185.00" from="37022694#2" to="6021005#2"/>
    <trip id="186" depart="186.00" from="6026843#10" to="6016043#6"/>
    <trip id="187" depart="187.00" from="-799599479" to="-37022573"/>
    <trip id="188" depart="188.00" from="6016043#13" to="-717163783#1"/>
    <trip id="189" depart="189.00" from="-636433967#13" to="61853147#0"/>
    <trip id="190" depart="190.00" from="6021005#1" to="-636433967#11"/>
    <trip id="191" depart="191.00" from="-636433967#1" to="127835385#9"/>
    <trip id="192" depart="192.00" from="127835385#13" to="-61913728#2"/>
    <trip id="193" depart="193.00" from="-39783608#5" to="183239677#6"/>
    <trip id="194" depart="194.00" from="720180739#5" to="6018407#4"/>
    <trip id="195" depart="195.00" from="717163783#0" to="458318073#0"/>
    <trip id="196" depart="196.00" from="-611155217#2" to="380591564#3"/>
    <trip id="197" depart="197.00" from="-127835375#1" to="-6041520#9"/>
    <trip id="198" depart="198.00" from="183239677#6" to="39783723#4"/>
    <trip id="199" depart="199.00" from="6012675#3" to="290451873#5"/>
    <trip id="200" depart="200.00" from="225022520#0" to="-6020167#13"/>
    <trip id="201" depart="201.00" from="35337043#0" to="655031390#2"/>
    <trip id="202" depart="202.00" from="6032862#23" to="-507625064"/>
    <trip id="203" depart="203.00" from="-37022581#1" to="37022581#0"/>
    <trip id="204" depart="204.00" from="588049213#0" to="-720180740#2"/>
    <trip id="205" depart="205.00" from="6041520#4" to="6026843#5"/>
    <trip id="206" depart="206.00" from="6016043#9" to="-6021089#0"/>
    <trip id="207" depart="207.00" from="-6018407#9" to="-175003438#3"/>
    <trip id="208" depart="208.00" from="-6025302#2" to="37022506"/>
    <trip id="209" depart="209.00" from="61853147#1" to="-37022574#1"/>
    <trip id="210" depart="210.00" from="127835385#6" to="586852276#1"/>
    <trip id="211" depart="211.00" from="-6018407#5" to="6019401#6"/>
    <trip id="212" depart="212.00" from="37022522#1" to="-6026843#13"/>
    <trip id="213" depart="213.00" from="6013254#1" to="-127835385#13"/>
    <trip id="214" depart="214.00" from="6026843#4" to="6030944#8"/>
    <trip id="215" depart="215.00" from="-37022700" to="204861330"/>
    <trip id="216" depart="216.00" from="-507625060#0" to="793730318"/>
    <trip id="217" depart="217.00" from="37022581#2" to="-37022509#2"/>
    <trip id="218" depart="218.00" from="-6026843#10" to="61853147#0"/>
    <trip id="219" depart="219.00" from="234854835#10" to="6032862#5"/>
    <trip id="220" depart="220.00" from="6016043#3" to="807719307#1"/>
    <trip id="221" depart="221.00" from="421035127#2" to="720180740#4"/>
    <trip id="222" depart="222.00" from="637976995" to="421039811#3"/>
    <trip id="223" depart="223.00" from="6021005#0" to="37022560"/>
    <trip id="224" depart="224.00" from="6043811#0" to="380591564#3"/>
    <trip id="225" depart="225.00" from="642220900#2" to="6026843#12"/>
    <trip id="226" depart="226.00" from="35337043#1" to="-6030178#3"/>
    <trip id="227" depart="227.00" from="-6026843#0" to="588049213#3"/>
    <trip id="228" depart="228.00" from="6030944#10" to="37022581#5"/>
    <trip id="229" depart="229.00" from="586851851#1" to="-6036071#1"/>
    <trip id="230" depart="230.00" from="-37022574#0" to="-6041520#8"/>
    <trip id="231" depart="231.00" from="-6030944#10" to="-636535953"/>
    <trip id="232" depart="232.00" from="37022702" to="-421035127#0"/>
    <trip id="233" depart="233.00" from="-6020167#8" to="6019401#4"/>
    <trip id="234" depart="234.00" from="6020167#13" to="-37022559#1"/>
    <trip id="235" depart="235.00" from="127835385#17" to="37022700"/>
    <trip id="236" depart="236.00" from="127835385#8" to="-6019401#8"/>
    <trip id="237" depart="237.00" from="175003438#2" to="720180737#1"/>
    <trip id="238" depart="238.00" from="39784498#0" to="6019401#5"/>
    <trip id="239" depart="239.00" from="636433967#10" to="6030944#3"/>
    <trip id="240" depart="240.00" from="-807719306#7" to="-127835385#14"/>
    <trip id="241" depart="241.00" from="-728222328#2" to="6026843#8"/>
    <trip id="242" depart="242.00" from="61913728#2" to="728222328#2"/>
    <trip id="243" depart="243.00" from="175003438#1" to="6026843#2"/>
    <trip id="244" depart="244.00" from="380591564#2" to="421035128#5"/>
    <trip id="245" depart="245.00" from="-6020167#12" to="-6020167#5"/>
    <trip id="246" depart="246.00" from="225022518#1" to="-183239677#3"/>
    <trip id="247" depart="247.00" from="-655031389" to="6018407#6"/>
    <trip id="248" depart="248.00" from="127835385#14" to="-458318074#1"/>
    <trip id="249" depart="249.00" from="290451870#3" to="-39783723#2"/>
    <trip id="250" depart="250.00" from="507625060#0" to="-183239677#2"/>
    <trip id="251" depart="251.00" from="127835374#0" to="39783608#0"/>
    <trip id="252" depart="252.00" from="-183239677#1" to="5998625#1"/>
    <trip id="253" depart="253.00" from="-39783723#3" to="290451873#0"/>
    <trip id="254" depart="254.00" from="-37022509#11" to="-807719307#5"/>
    <trip id="255" depart="255.00" from="-6019401#5" to="-655031390#1"/>
    <trip id="256" depart="256.00" from="6030178#4" to="-807719307#5"/>
    <trip id="257" depart="257.00" from="6026843#5" to="611155216#2"/>
    <trip id="258" depart="258.00" from="-6026843#12" to="-37022581#5"/>
    <trip id="259" depart="259.00" from="-127835385#8" to="37022694#0"/>
    <trip id="260" depart="260.00" from="819837318" to="-799596422#4"/>
    <trip id="261" depart="261.00" from="6012438#4" to="6032862#13"/>
    <trip id="262" depart="262.00" from="6012675#1" to="6026843#9"/>
    <trip id="263" depart="263.00" from="720180740#3" to="-6019401#14"/>
    <trip id="264" depart="264.00" from="-127835385#9" to="-421039810#1"/>
    <trip id="265" depart="265.00" from="-39783608#4" to="6016043#5"/>
    <trip id="266" depart="266.00" from="39783608#0" to="-6020167#4"/>
    <trip id="267" depart="267.00" from="6019401#8" to="6030944#4"/>
    <trip id="268" depart="268.00" from="-458318073#0" to="421039810#2"/>
    <trip id="269" depart="269.00" from="6026843#15" to="-39783608#1"/>
    <trip id="270" depart="270.00" from="6041520#5" to="799599478"/>
    <trip id="271" depart="271.00" from="-37022702" to="-183239677#0"/>
    <trip id="272" depart="272.00" from="-636433967#12" to="6018407#4"/>
    <trip id="273" depart="273.00" from="793730318" to="127835385#16"/>
    <trip id="274" depart="274.00" from="6020167#7" to="-37022581#0"/>
    <trip id="275" depart="275.00" from="6019401#13" to="586851851#0"/>
    <trip id="276" depart="276.00" from="-37022694#0" to="6031428#1"/>
    <trip id="277" depart="277.00" from="61913728#0" to="421035128#2"/>
    <trip id="278" depart="278.00" from="-39783608#0" to="807719306#7"/>
    <trip id="279" depart="279.00" from="6032862#11" to="-799596422#2"/>
    <trip id="280" depart="280.00" from="183239677#5" to="-807719306#8"/>
    <trip id="281" depart="281.00" from="37022560" to="-728222328#3"/>
    <trip id="282" depart="282.00" from="61853147#1" to="6041520#9"/>
    <trip id="283" depart="283.00" from="-37022698" to="799596422#3"/>
    <trip id="284" depart="284.00" from="588049213#2" to="6043811#1"/>
    <trip id="285" depart="285.00" from="6020167#14" to="225022520#3"/>
    <trip id="286" depart="286.00" from="6022272#1" to="799599479"/>
    <trip id="287" depart="287.00" from="-6030178#5" to="6036071#1"/>
    <trip id="288" depart="288.00" from="37022694#2" to="37022509#5"/>
    <trip id="289" depart="289.00" from="225022518#0" to="6022272#1"/>
    <trip id="290" depart="290.00" from="-6030178#4" to="61913728#1"/>
    <trip id="291" depart="291.00" from="6043811#0" to="-37022655#4"/>
    <trip id="292" depart="292.00" from="636535950#2" to="-6026843#13"/>
    <trip id="293" depart="293.00" from="234854835#8" to="421039811#1"/>
    <trip id="294" depart="294.00" from="-807719306#6" to="-183239677#3"/>
    <trip id="295" depart="295.00" from="61913728#0" to="-6018407#1"/>
    <trip id="296" depart="296.00" from="-6019401#5" to="6032862#27"/>
    <trip id="297" depart="297.00" from="-717163783#0" to="636535950#1"/>
    <trip id="298" depart="298.00" from="6019401#9" to="-6041520#0"/>
    <trip id="299" depart="299.00" from="-127835385#17" to="720180740#2"/>
    <trip id="300" depart="300.00" from="-37022581#2" to="6021005#2"/>
    <trip id="301" depart="301.00" from="37022509#6" to="6030178#2"/>
    <trip id="302" depart="302.00" from="6019401#13" to="6004809#1"/>
    <trip id="303" depart="303.00" from="37022509#9" to="6032862#23"/>
    <trip id="304" depart="304.00" from="-37022655#2" to="-6020167#7"/>
    <trip id="305" depart="305.00" from="6019401#14" to="-636433967#4"/>
    <trip id="306" depart="306.00" from="39783756#0" to="37022473#3"/>
    <trip id="307" depart="307.00" from="37022688#0" to="225022518#0"/>
    <trip id="308" depart="308.00" from="6026843#13" to="-717163783#1"/>
    <trip id="309" depart="309.00" from="6020167#10" to="-6030944#8"/>
    <trip id="310" depart="310.00" from="-6026843#12" to="-39783608#6"/>
    <trip id="311" depart="311.00" from="-6018407#3" to="-39783608#5"/>
    <trip id="312" depart="312.00" from="37022694#0" to="6030944#1"/>
    <trip id="313" depart="313.00" from="-588049213#3" to="-6020167#2"/>
    <trip id="314" depart="314.00" from="37022509#11" to="6021089#3"/>
    <trip id="315" depart="315.00" from="807719306#15" to="37022655#1"/>
    <trip id="316" depart="316.00" from="-6036071#3" to="-380591564#2"/>
    <trip id="317" depart="317.00" from="-6018407#4" to="-6021089#2"/>
    <trip id="318" depart="318.00" from="-588049212#0" to="-127835385#4"/>
    <trip id="319" depart="319.00" from="37022688#4" to="-6036071#1"/>
    <trip id="320" depart="320.00" from="807719306#12" to="39783373#5"/>
    <trip id="321" depart="321.00" from="6019401#6" to="-39783723#1"/>
    <trip id="322" depart="322.00" from="636433967#9" to="37022522#2"/>
    <trip id="323" depart="323.00" from="636434103#3" to="39783608#9"/>
    <trip id="324" depart="324.00" from="290451873#1" to="22871558#0"/>
    <trip id="325" depart="325.00" from="-588049213#3" to="-37022509#3"/>
    <trip id="326" depart="326.00" from="720180739#6" to="37022509#10"/>
    <trip id="327" depart="327.00" from="6041520#7" to="127835385#20"/>
    <trip id="328" depart="328.00" from="-37022565#1" to="586851851#2"/>
    <trip id="329" depart="329.00" from="-37022509#2" to="-421035128#5"/>
    <trip id="330" depart="330.00" from="39783441#3" to="-636433967#2"/>
    <trip id="331" depart="331.00" from="807719307#6" to="-39783608#4"/>
    <trip id="332" depart="332.00" from="6030944#1" to="421039810#1"/>
    <trip id="333" depart="333.00" from="6032862#18" to="-6021089#1"/>
    <trip id="334" depart="334.00" from="37022655#0" to="234854835#2"/>
    <trip id="335" depart="335.00" from="225022520#1" to="636433967#2"/>
    <trip id="336" depart="336.00" from="807719307#3" to="-636433967#4"/>
    <trip id="337" depart="337.00" from="458318074#2" to="421039811#1"/>
    <trip id="338" depart="338.00" from="6026843#0" to="720180740#2"/>
    <trip id="339" depart="339.00" from="-6019401#14" to="-6020167#11"/>
    <trip id="340" depart="340.00" from="6016043#10" to="-421039811#2"/>
    <trip id="341" depart="341.00" from="-458318074#1" to="-37022578"/>
    <trip id="342" depart="342.00" from="-127835385#1" to="234854835#2"/>
    <trip id="343" depart="343.00" from="421035127#1" to="-61853146#0"/>
    <trip id="344" depart="344.00" from="-6020167#9" to="6020167#14"/>
    <trip id="345" depart="345.00" from="6020167#10" to="234854835#5"/>
    <trip id="346" depart="346.00" from="6019401#10" to="720180737#25"/>
    <trip id="347" depart="347.00" from="6032862#16" to="507625060#1"/>
    <trip id="348" depart="348.00" from="6016043#10" to="720180739#0"/>
    <trip id="349" depart="349.00" from="183239677#2" to="377513080#2"/>
    <trip id="350" depart="350.00" from="6012438#2" to="720180737#12"/>
    <trip id="351" depart="351.00" from="6042783#1" to="-37022574#0"/>
    <trip id="352" depart="352.00" from="-421039811#4" to="-636433967#6"/>
    <trip id="353" depart="353.00" from="6026843#2" to="39783608#5"/>
    <trip id="354" depart="354.00" from="-6041520#11" to="-39783608#9"/>
    <trip id="355" depart="355.00" from="6019401#11" to="6019401#9"/>
    <trip id="356" depart="356.00" from="720180739#7" to="37022538#1"/>
    <trip id="357" depart="357.00" from="37022522#0" to="-37022581#4"/>
    <trip id="358" depart="358.00" from="-22871558#2" to="225022519#2"/>
    <trip id="359" depart="359.00" from="-636433967#9" to="-6026843#5"/>
    <trip id="360" depart="360.00" from="-37022655#0" to="799596422#4"/>
    <trip id="361" depart="361.00" from="611155216#4" to="39783723#0"/>
    <trip id="362" depart="362.00" from="720180740#4" to="819837318"/>
    <trip id="363" depart="363.00" from="6016043#7" to="-6030944#6"/>
    <trip id="364" depart="364.00" from="-22871558#3" to="6030178#0"/>
    <trip id="365" depart="365.00" from="290451873#4" to="6012675#0"/>
    <trip id="366" depart="366.00" from="720180737#17" to="-6018407#0"/>
    <trip id="367" depart="367.00" from="39784498#1" to="588049213#0"/>
    <trip id="368" depart="368.00" from="37022521" to="-37022669"/>
    <trip id="369" depart="369.00" from="-720180740#4" to="-720180740#0"/>
    <trip id="370" depart="370.00" from="6016043#5" to="636433967#12"/>
    <trip id="371" depart="371.00" from="-636535951#3" to="6019401#4"/>
    <trip id="372" depart="372.00" from="-6041520#10" to="720180740#0"/>
    <trip id="373" depart="373.00" from="6041520#0" to="39783373#2"/>
    <trip id="374" depart="374.00" from="234854835#1" to="-636535949#2"/>
    <trip id="375" depart="375.00" from="-636434104" to="807719306#1"/>
    <trip id="376" depart="376.00" from="127835385#14" to="37022578"/>
    <trip id="377" depart="377.00" from="807719307#1" to="6013254#1"/>
    <trip id="378" depart="378.00" from="377513080#2" to="183239677#0"/>
    <trip id="379" depart="379.00" from="-5997290#0" to="-807719306#14"/>
    <trip id="380" depart="380.00" from="6030178#0" to="527123110"/>
    <trip id="381" depart="381.00" from="6030178#3" to="-6019401#5"/>
    <trip id="382" depart="382.00" from="39783373#0" to="720180737#5"/>
    <trip id="383" depart="383.00" from="225022519#0" to="6019401#8"/>
    <trip id="384" depart="384.00" from="-39783608#0" to="807719306#12"/>
    <trip id="385" depart="385.00" from="421039811#0" to="-6026843#1"/>
    <trip id="386" depart="386.00" from="-421039810#0" to="39783373#2"/>
    <trip id="387" depart="387.00" from="39783373#4" to="-37022694#1"/>
    <trip id="388" depart="388.00" from="807719307#5" to="720180737#16"/>
    <trip id="389" depart="389.00" from="234854835#5" to="-39783608#3"/>
    <trip id="390" depart="390.00" from="611155216#0" to="37022536#1"/>
    <trip id="391" depart="391.00" from="6020167#9" to="37022573"/>
    <trip id="392" depart="392.00" from="-6030944#2" to="611155216#4"/>
    <trip id="393" depart="393.00" from="807719306#4" to="-6026843#13"/>
    <trip id="394" depart="394.00" from="39783373#3" to="127835374#0"/>
    <trip id="395" depart="395.00" from="720180737#22" to="37022566"/>
    <trip id="396" depart="396.00" from="636535949#1" to="636433967#5"/>
    <trip id="397" depart="397.00" from="-6030944#5" to="6032862#2"/>
    <trip id="398" depart="398.00" from="127835385#7" to="720180739#1"/>
    <trip id="399" depart="399.00" from="37022565#1" to="6041520#8"/>
    <trip id="400" depart="400.00" from="-6036071#3" to="-636433967#10"/>
    <trip id="401" depart="401.00" from="39784498#3" to="819837318"/>
    <trip id="402" depart="402.00" from="37022509#7" to="-421035128#5"/>
    <trip id="403" depart="403.00" from="37022700" to="-793730318"/>
    <trip id="404" depart="404.00" from="39783373#3" to="37022702"/>
    <trip id="405" depart="405.00" from="234854835#1" to="-642220900#0"/>
    <trip id="406" depart="406.00" from="-5997290#1" to="6019401#7"/>
    <trip id="407" depart="407.00" from="39783608#7" to="-6022272#2"/>
    <trip id="408" depart="408.00" from="6031428#1" to="-290451870#3"/>
    <trip id="409" depart="409.00" from="6026843#12" to="6020167#13"/>
    <trip id="410" depart="410.00" from="6036071#1" to="127835374#2"/>
    <trip id="411" depart="411.00" from="6016043#13" to="6041520#8"/>
    <trip id="412" depart="412.00" from="807719306#4" to="37022522#9"/>
    <trip id="413" depart="413.00" from="-22871558#0" to="37022559#2"/>