<?xml version="1.0" encoding="UTF-8"?>


<!-- generated on 2021-11-19 22:22:57 by Eclipse SUMO polyconvert Version 1.10.0
<configuration xmlns:xsi="http://www.w3.org/2001/XMLSchema-instance" xsi:noNamespaceSchemaLocation="http://sumo.dlr.de/xsd/polyconvertConfiguration.xsd">

    <input>
        <osm-files value="downtown/downtown.osm"/>
    </input>

    <output>
        <output-file value="downtown.poly"/>
    </output>

    <projection>
        <proj.scale value="1"/>
        <proj.utm value="true"/>
    </projection>

    <processing>
        <poi-layer-offset value="5"/>
    </processing>

</configuration>
-->

<additional xmlns:xsi="http://www.w3.org/2001/XMLSchema-instance" xsi:noNamespaceSchemaLocation="http://sumo.dlr.de/xsd/additional_file.xsd">
    <location netOffset="0.00,0.00" convBoundary="475855.50,4973452.70,479747.20,4979395.42" origBoundary="-93.306079,44.914135,-93.256744,44.967609" projParameter="+proj=utm +zone=15 +ellps=WGS84 +datum=WGS84 +units=m +no_defs"/>

    <poly id="101554807" type="leisure" color="207,245,201" fill="1" layer="-2.00" shape="477497.327291,4977987.429906 477496.791286,4977989.775745 477496.927612,4977992.652440 477497.764496,4977995.115645 477500.007029,4977998.040475 477503.366212,4977999.994914 477507.146249,4978000.503733 477510.700432,4977999.591424 477512.998364,4977998.083659 477515.079619,4977995.521322 477516.103418,4977992.818289 477516.298814,4977990.062624 477515.785294,4977987.587171 477514.490773,4977985.081137 477511.910672,4977982.612949 477507.969393,4977981.116013 477504.711926,4977981.171903 477501.435015,4977982.427613 477498.824424,4977984.747422 477497.327291,4977987.429906"/>
    <poly id="101554808" type="leisure" color="207,245,201" fill="1" layer="-2.00" shape="477487.884175,4977939.961982 477487.818855,4977860.889909 477568.637102,4977860.394917 477569.262693,4977917.325220 477552.413198,4977939.524130 477487.884175,4977939.961982"/>
    <poly id="101554808#1" type="sport" color="79,230,125" fill="1" layer="-2.00" shape="477487.884175,4977939.961982 477487.818855,4977860.889909 477568.637102,4977860.394917 477569.262693,4977917.325220 477552.413198,4977939.524130 477487.884175,4977939.961982"/>
    <poly id="101554809" type="parking" color="184,184,179" fill="1" layer="-1.00" shape="477493.619195,4978036.510447 477520.594185,4978036.204519 477528.259126,4978019.936544 477496.446469,4978019.559604 477493.619195,4978036.510447"/>
    <poly id="101554811" type="building" color="255,230,230" fill="1" layer="-1.00" shape="477539.996481,4978017.795759 477540.056436,4978034.869747 477560.153409,4978034.588142 477560.339757,4978027.000189 477566.449216,4978021.491020 477566.376748,4978000.828940 477577.124964,4977988.771550 477582.219437,4977992.975029 477591.923314,4977984.509461 477600.386082,4977984.268752 477601.575179,4978022.001119 477623.157289,4978022.347712 477621.554451,4977866.319393 477600.818032,4977866.603041 477600.218452,4977936.401603 477600.894521,4977949.263203 477590.530759,4977949.510571 477587.348052,4977946.144653 477590.082637,4977943.180136 477582.017682,4977935.410033 477566.846329,4977952.548529 477577.677378,4977964.097010 477565.659197,4977976.158853 477549.317804,4977961.041594 477541.721188,4977967.600225 477539.393568,4977967.397332 477536.650387,4977970.150834 477536.446314,4977972.684353 477531.185970,4977979.656927 477547.532584,4977996.262698 477551.555306,4977996.248578 477550.988181,4978016.701837 477539.996481,4978017.795759"/>
    <poly id="101554815" type="leisure" color="207,245,201" fill="1" layer="-2.00" shape="477518.946674,4977955.704964 477518.449394,4977957.850706 477518.506130,4977960.527723 477519.184786,4977962.858182 477521.159138,4977965.783962 477524.274476,4977967.928118 477528.055545,4977968.725774 477531.823458,4977968.023793 477534.318756,4977966.559778 477536.620496,4977963.885586 477537.738299,4977960.993377 477537.901374,4977958.015651 477537.261149,4977955.396227 477535.753427,4977952.824285 477532.905489,4977950.457008 477528.846894,4977949.249300 477525.692810,4977949.549209 477522.645053,4977950.926299 477520.294542,4977953.189642 477518.946674,4977955.704964"/>
    <poly id="118880323" type="amenity" color="237,199,199" fill="1" layer="-1.00" shape="477265.380921,4978028.019574 477240.929041,4978028.062098 477240.936903,4978034.705124 477265.396606,4978034.651464 477265.380921,4978028.019574"/>
    <poly id="118880323#1" type="building" color="255,230,230" fill="1" layer="-1.00" shape="477265.380921,4978028.019574 477240.929041,4978028.062098 477240.936903,4978034.705124 477265.396606,4978034.651464 477265.380921,4978028.019574"/>
    <poly id="118880324" type="amenity" color="237,199,199" fill="1" layer="-1.00" shape="477264.997410,4977977.820336 477228.697912,4977977.882809 477228.735218,4978001.655478 477242.499308,4978001.628709 477265.042469,4978001.592976 477264.997410,4977977.820336"/>
    <poly id="118880324#1" type="building" color="255,230,230" fill="1" layer="-1.00" shape="477264.997410,4977977.820336 477228.697912,4977977.882809 477228.735218,4978001.655478 477242.499308,4978001.628709 477265.042469,4978001.592976 477264.997410,4977977.820336"/>
    <poly id="118880330" type="amenity" color="237,199,199" fill="1" layer="-1.00" shape="477366.713599,4977670.979440 477361.097435,4977671.043748 477361.110040,4977672.376757 477358.933006,4977672.406680 477358.892042,4977667.518962 477355.145314,4977667.565551 477355.202333,4977672.530973 477352.236489,4977672.563690 477352.225140,4977671.586158 477348.675578,4977671.620943 477348.813483,4977686.061867 477341.572389,4977686.131947 477341.684461,4977697.729116 477343.624884,4977697.711134 477343.785698,4977714.162667 477367.559697,4977713.922985 477367.465779,4977705.214035 477365.675231,4977705.231479 477365.580446,4977696.278138 477367.355220,4977696.260750 477367.290822,4977689.206903 477365.539710,4977689.224208 477365.407974,4977676.516231 477366.772574,4977676.500294 477366.713599,4977670.979440"/>
    <poly id="118880330#1" type="building" color="255,230,230" fill="1" layer="-1.00" shape="477366.713599,4977670.979440 477361.097435,4977671.043748 477361.110040,4977672.376757 477358.933006,4977672.406680 477358.892042,4977667.518962 477355.145314,4977667.565551 477355.202333,4977672.530973 477352.236489,4977672.563690 477352.225140,4977671.586158 477348.675578,4977671.620943 477348.813483,4977686.061867 477341.572389,4977686.131947 477341.684461,4977697.729116 477343.624884,4977697.711134 477343.785698,4977714.162667 477367.559697,4977713.922985 477367.465779,4977705.214035 477365.675231,4977705.231479 477365.580446,4977696.278138 477367.355220,4977696.260750 477367.290822,4977689.206903 477365.539710,4977689.224208 477365.407974,4977676.516231 477366.772574,4977676.500294 477366.713599,4977670.979440"/>
    <poly id="118880331" type="building" color="255,230,230" fill="1" layer="-1.00" shape="477340.099661,4978065.324342 477340.159363,4978082.176159 477346.658733,4978082.153136 477346.651651,4978080.153580 477363.791379,4978080.092898 477363.798456,4978082.092455 477370.534454,4978082.068619 477370.474832,4978065.216802 477363.620502,4978065.241057 477363.627185,4978067.129527 477346.369109,4978067.190628 477346.362420,4978065.302158 477340.099661,4978065.324342"/>
    <poly id="118880332" type="building" color="255,230,230" fill="1" layer="-1.00" shape="477224.369326,4977996.116629 477208.760178,4977996.338861 477208.917799,4978007.369324 477191.841609,4978007.607934 477192.000210,4978018.905004 477209.076369,4978018.666395 477209.107196,4978020.676976 477189.144278,4978020.959205 477189.272881,4978030.478977 477199.021660,4978030.344238 477203.712884,4978036.426241 477209.328648,4978036.339576 477209.403613,4978041.882593 477225.012650,4978041.660363 477224.369326,4977996.116629"/>
    <poly id="118880333" type="building" color="255,230,230" fill="1" layer="-1.00" shape="476595.785347,4977699.259347 476586.169801,4977699.294534 476586.194726,4977706.104131 476595.810262,4977706.068943 476595.785347,4977699.259347"/>
    <poly id="118880334" type="building" color="255,230,230" fill="1" layer="-1.00" shape="476690.219729,4977843.539855 476706.303121,4977843.481265 476706.271568,4977834.816524 476690.188154,4977834.875114 476690.219729,4977843.539855"/>
    <poly id="118880335" type="building" color="255,230,230" fill="1" layer="-1.00" shape="476660.291704,4977696.257573 476650.857579,4977696.292002 476650.895897,4977706.789667 476660.330006,4977706.755238 476660.291704,4977696.257573"/>
    <poly id="118880336" type="building" color="255,230,230" fill="1" layer="-1.00" shape="476615.343905,4977588.088835 476615.371519,4977595.642709 476621.287660,4977595.621085 476621.260054,4977588.067211 476615.343905,4977588.088835"/>
    <poly id="118880337" type="building" color="255,230,230" fill="1" layer="-1.00" shape="476631.001550,4977775.770131 476631.023749,4977781.846558 476636.016827,4977781.828319 476635.994633,4977775.751892 476631.001550,4977775.770131"/>
    <poly id="118880338" type="building" color="255,230,230" fill="1" layer="-1.00" shape="477240.936903,4978034.705124 477240.953562,4978041.603621 477265.310739,4978041.561434 477265.396606,4978034.651464 477240.936903,4978034.705124"/>
    <poly id="118880339" type="building" color="255,230,230" fill="1" layer="-1.00" shape="476625.512442,4977588.229412 476625.538014,4977595.227854 476631.264839,4977595.206931 476631.239273,4977588.208489 476625.512442,4977588.229412"/>
    <poly id="118880340" type="building" color="255,230,230" fill="1" layer="-1.00" shape="476889.615162,4977580.160227 476889.833735,4977588.257741 476901.120781,4977587.950364 476900.894335,4977579.852879 476889.615162,4977580.160227"/>
    <poly id="118880341" type="building" color="255,230,230" fill="1" layer="-1.00" shape="476727.303350,4977722.730057 476733.219374,4977722.708536 476733.195252,4977716.076678 476727.279222,4977716.098199 476727.303350,4977722.730057"/>
    <poly id="118880342" type="building" color="255,230,230" fill="1" layer="-1.00" shape="476761.094357,4977763.498654 476748.710268,4977763.554766 476748.737685,4977771.097533 476761.129688,4977771.052501 476761.094357,4977763.498654"/>
    <poly id="118880343" type="building" color="255,230,230" fill="1" layer="-1.00" shape="476660.003574,4977669.175401 476650.206557,4977669.211154 476650.245565,4977679.897665 476660.042566,4977679.861912 476660.003574,4977669.175401"/>
    <poly id="118880344" type="building" color="255,230,230" fill="1" layer="-1.00" shape="476691.012348,4977807.788881 476705.060745,4977807.737705 476705.033924,4977800.372676 476690.985510,4977800.423852 476691.012348,4977807.788881"/>
    <poly id="118880345" type="building" color="255,230,230" fill="1" layer="-1.00" shape="477245.064189,4977820.190920 477243.967809,4977820.205929 477244.264998,4977843.877688 477263.353074,4977843.643179 477263.055956,4977819.971419 477245.064189,4977820.190920"/>
    <poly id="118880346" type="building" color="255,230,230" fill="1" layer="-1.00" shape="476727.594221,4977802.678946 476733.699481,4977802.656737 476733.675359,4977796.024878 476727.570093,4977796.047087 476727.594221,4977802.678946"/>
    <poly id="118880347" type="building" color="255,230,230" fill="1" layer="-1.00" shape="477244.645276,4977680.255092 477230.423579,4977680.450112 477230.549276,4977689.170057 477244.770953,4977688.975037 477244.645276,4977680.255092"/>
    <poly id="118880348" type="building" color="255,230,230" fill="1" layer="-1.00" shape="476689.769923,4977772.056435 476708.259326,4977771.989084 476708.224418,4977762.402327 476689.734988,4977762.469677 476689.769923,4977772.056435"/>
    <poly id="118880349" type="building" color="255,230,230" fill="1" layer="-1.00" shape="476625.958603,4977608.867907 476625.980805,4977614.944332 476632.819844,4977614.919347 476632.797648,4977608.842922 476625.958603,4977608.867907"/>
    <poly id="118880350" type="building" color="255,230,230" fill="1" layer="-1.00" shape="476729.454404,4977754.593343 476729.471134,4977759.192320 476736.680754,4977759.166096 476736.664028,4977754.567119 476729.454404,4977754.593343"/>
    <poly id="118880351" type="building" color="255,230,230" fill="1" layer="-1.00" shape="477318.682313,4977601.986308 477318.873416,4977615.838277 477327.053123,4977615.720410 477326.862078,4977601.879550 477318.682313,4977601.986308"/>
    <poly id="118880352" type="building" color="255,230,230" fill="1" layer="-1.00" shape="476645.767181,4977617.815894 476645.806195,4977628.502404 476657.638417,4977628.459218 476657.599422,4977617.772708 476645.767181,4977617.815894"/>
    <poly id="118880353" type="building" color="255,230,230" fill="1" layer="-1.00" shape="477351.683954,4977614.533389 477352.080061,4977641.748493 477364.219419,4977641.572220 477363.815476,4977614.357144 477351.683954,4977614.533389"/>
    <poly id="118880354" type="building" color="255,230,230" fill="1" layer="-1.00" shape="477331.117563,4977611.829042 477331.338838,4977627.524961 477338.335348,4977627.422411 477338.114090,4977611.726491 477331.117563,4977611.829042"/>
    <poly id="118880355" type="building" color="255,230,230" fill="1" layer="-1.00" shape="476591.751450,4977758.783890 476591.797264,4977771.303329 476609.726624,4977771.237743 476609.680804,4977758.707196 476591.751450,4977758.783890"/>
    <poly id="118880356" type="building" color="255,230,230" fill="1" layer="-1.00" shape="477256.339332,4977714.595178 477242.583145,4977714.799626 477242.758699,4977726.452112 477256.514860,4977726.247665 477256.339332,4977714.595178"/>
    <poly id="118880357" type="building" color="255,230,230" fill="1" layer="-1.00" shape="476702.193363,4977832.620727 476702.163180,4977824.333680 476689.037704,4977824.381500 476689.067905,4977832.668547 476702.193363,4977832.620727"/>
    <poly id="118880358" type="building" color="255,230,230" fill="1" layer="-1.00" shape="476689.857830,4977744.228599 476689.882685,4977751.049305 476706.699893,4977750.988044 476706.675056,4977744.167338 476689.857830,4977744.228599"/>
    <poly id="118880359" type="building" color="255,230,230" fill="1" layer="-1.00" shape="476643.713799,4977714.369862 476643.740041,4977721.557152 476659.642316,4977721.499109 476659.616091,4977714.311819 476643.713799,4977714.369862"/>
    <poly id="118880360" type="building" color="255,230,230" fill="1" layer="-1.00" shape="476586.264759,4977574.375870 476603.642496,4977574.312290 476603.611497,4977565.836400 476586.233737,4977565.899980 476586.264759,4977574.375870"/>
    <poly id="118880361" type="building" color="255,230,230" fill="1" layer="-1.00" shape="477262.359649,4977726.160234 477256.514860,4977726.247665 477242.758699,4977726.452112 477234.531806,4977726.570256 477234.748691,4977740.966465 477262.576472,4977740.556444 477262.359649,4977726.160234"/>
    <poly id="118880362" type="building" color="255,230,230" fill="1" layer="-1.00" shape="476757.804469,4977824.131264 476741.350297,4977824.191072 476741.372391,4977830.267499 476757.826548,4977830.207691 476757.804469,4977824.131264"/>
    <poly id="118880363" type="building" color="255,230,230" fill="1" layer="-1.00" shape="476727.440366,4977708.354788 476727.463160,4977714.620061 476734.302092,4977714.595183 476734.279305,4977708.329910 476727.440366,4977708.354788"/>
    <poly id="118880364" type="building" color="255,230,230" fill="1" layer="-1.00" shape="477262.890570,4977806.730339 477246.216010,4977806.934045 477244.898766,4977806.949840 477245.064189,4977820.190920 477263.055956,4977819.971419 477262.890570,4977806.730339"/>
    <poly id="118880365" type="building" color="255,230,230" fill="1" layer="-1.00" shape="476613.419434,4977568.744365 476613.441689,4977574.831898 476619.728596,4977574.808917 476619.706347,4977568.721384 476613.419434,4977568.744365"/>
    <poly id="118880366" type="building" color="255,230,230" fill="1" layer="-1.00" shape="476627.670278,4977723.271057 476633.767726,4977723.248781 476633.738794,4977715.328320 476627.641338,4977715.350596 476627.670278,4977723.271057"/>
    <poly id="118880367" type="building" color="255,230,230" fill="1" layer="-1.00" shape="477292.158502,4977754.348447 477292.327930,4977766.523069 477312.520397,4977766.240353 477312.351007,4977754.065730 477292.158502,4977754.348447"/>
    <poly id="118880368" type="building" color="255,230,230" fill="1" layer="-1.00" shape="476650.629077,4977683.395533 476650.665368,4977693.337766 476660.462348,4977693.302013 476660.426073,4977683.359781 476650.629077,4977683.395533"/>
    <poly id="118880369" type="building" color="255,230,230" fill="1" layer="-1.00" shape="477300.381252,4977877.548979 477300.538715,4977888.579442 477329.967084,4977888.164029 477329.809672,4977877.133566 477300.381252,4977877.548979"/>
    <poly id="118880370" type="building" color="255,230,230" fill="1" layer="-1.00" shape="476691.386599,4977707.008589 476691.416148,4977715.117897 476702.135995,4977715.078845 476702.106460,4977706.969537 476691.386599,4977707.008589"/>
    <poly id="118880371" type="building" color="255,230,230" fill="1" layer="-1.00" shape="477262.023038,4977700.255755 477243.060704,4977700.478709 477226.220217,4977700.683056 477226.366977,4977713.102150 477262.169729,4977712.674850 477262.023038,4977700.255755"/>
    <poly id="118880372" type="building" color="255,230,230" fill="1" layer="-1.00" shape="476743.669032,4977800.232093 476743.695163,4977807.419384 476759.407913,4977807.362276 476759.381800,4977800.174985 476743.669032,4977800.232093"/>
    <poly id="118880373" type="building" color="255,230,230" fill="1" layer="-1.00" shape="476702.116974,4977759.669589 476702.092132,4977752.848883 476689.889405,4977752.893339 476689.914260,4977759.714045 476702.116974,4977759.669589"/>
    <poly id="118880374" type="building" color="255,230,230" fill="1" layer="-1.00" shape="476723.913565,4977705.968122 476716.341036,4977705.995680 476716.366550,4977713.005232 476723.939071,4977712.977673 476723.913565,4977705.968122"/>
    <poly id="118880375" type="building" color="255,230,230" fill="1" layer="-1.00" shape="476729.050813,4977745.563367 476729.074293,4977752.017487 476733.878082,4977752.000013 476733.854607,4977745.545892 476729.050813,4977745.563367"/>
    <poly id="118880376" type="building" color="255,230,230" fill="1" layer="-1.00" shape="477204.469673,4977617.966789 477204.291476,4977638.796386 477217.441586,4977638.916170 477217.627715,4977618.086546 477204.469673,4977617.966789"/>
    <poly id="118880377" type="building" color="255,230,230" fill="1" layer="-1.00" shape="476647.384542,4977604.923797 476647.418160,4977614.132859 476657.767433,4977614.095086 476657.733830,4977604.886025 476647.384542,4977604.923797"/>
    <poly id="118880378" type="building" color="255,230,230" fill="1" layer="-1.00" shape="477293.445766,4977670.328173 477293.697179,4977694.488876 477295.211647,4977694.472392 477295.535340,4977725.664698 477293.807902,4977725.681938 477293.916196,4977736.190460 477313.793514,4977735.986628 477313.674391,4977709.070477 477313.361451,4977694.230257 477311.933751,4977694.246429 477311.864162,4977687.970216 477329.974741,4977687.783811 477329.771985,4977668.410819 477304.199410,4977668.679238 477304.212737,4977670.212202 477293.445766,4977670.328173"/>
    <poly id="118880380" type="building" color="255,230,230" fill="1" layer="-1.00" shape="476591.303318,4977789.368029 476608.317625,4977789.305787 476608.261884,4977776.219837 476591.255430,4977776.282049 476591.303318,4977789.368029"/>
    <poly id="118880381" type="building" color="255,230,230" fill="1" layer="-1.00" shape="476690.356314,4977729.496530 476690.387848,4977738.150161 476704.996447,4977738.096944 476704.964933,4977729.443313 476690.356314,4977729.496530"/>
    <poly id="118880382" type="building" color="255,230,230" fill="1" layer="-1.00" shape="477256.814637,4977930.359371 477237.868049,4977930.382331 477237.881384,4977945.212511 477257.245979,4977945.188064 477257.242504,4977944.210504 477259.648309,4977944.213059 477259.632981,4977931.026986 477256.817007,4977931.025889 477256.814637,4977930.359371"/>
    <poly id="118880383" type="building" color="255,230,230" fill="1" layer="-1.00" shape="477246.061756,4977794.614955 477246.216010,4977806.934045 477262.890570,4977806.730339 477262.736309,4977794.400139 477246.061756,4977794.614955"/>
    <poly id="118880384" type="building" color="255,230,230" fill="1" layer="-1.00" shape="476485.524216,4977583.288038 476485.748211,4977601.305669 476506.879998,4977601.050287 476506.656022,4977583.021547 476485.524216,4977583.288038"/>
    <poly id="118880385" type="building" color="255,230,230" fill="1" layer="-1.00" shape="476743.236791,4977833.215658 476743.264256,4977840.769535 476757.683310,4977840.717126 476757.655863,4977833.163249 476743.236791,4977833.215658"/>
    <poly id="118880386" type="building" color="255,230,230" fill="1" layer="-1.00" shape="476690.135948,4977718.810679 476690.161451,4977725.809122 476702.727078,4977725.763346 476702.701590,4977718.764902 476690.135948,4977718.810679"/>
    <poly id="118880387" type="building" color="255,230,230" fill="1" layer="-1.00" shape="476688.190652,4977793.246650 476703.532704,4977793.190756 476703.502523,4977784.903710 476688.152563,4977784.959632 476688.190652,4977793.246650"/>
    <poly id="118880388" type="building" color="255,230,230" fill="1" layer="-1.00" shape="477364.735841,4977593.569365 477347.035417,4977593.820870 477347.150903,4977601.929868 477364.843417,4977601.678392 477364.735841,4977593.569365"/>
    <poly id="118880389" type="building" color="255,230,230" fill="1" layer="-1.00" shape="476658.450868,4977749.508712 476648.835397,4977749.543806 476648.869704,4977758.941716 476658.485160,4977758.906622 476658.450868,4977749.508712"/>
    <poly id="118880391" type="building" color="255,230,230" fill="1" layer="-1.00" shape="476745.035933,4977668.499123 476745.108758,4977686.361787 476751.758406,4977686.337617 476751.693488,4977668.474924 476745.035933,4977668.499123"/>
    <poly id="118880392" type="building" color="255,230,230" fill="1" layer="-1.00" shape="476619.222891,4977738.598729 476585.943368,4977738.720456 476585.994601,4977752.717343 476619.274051,4977752.595616 476619.222891,4977738.598729"/>
    <poly id="118880393" type="building" color="255,230,230" fill="1" layer="-1.00" shape="477242.928266,4977689.859186 477243.060704,4977700.478709 477262.023038,4977700.255755 477261.898520,4977689.636204 477242.928266,4977689.859186"/>
    <poly id="118880394" type="building" color="255,230,230" fill="1" layer="-1.00" shape="477361.103515,4977543.481636 477350.833290,4977543.595751 477350.869108,4977547.028236 477348.124077,4977547.060173 477348.194181,4977553.491906 477353.321378,4977553.429318 477353.319097,4977552.785017 477360.938939,4977552.702503 477360.927591,4977551.724970 477363.238806,4977551.705683 477363.158981,4977544.751871 477361.115964,4977544.770210 477361.103515,4977543.481636"/>
    <poly id="118880395" type="building" color="255,230,230" fill="1" layer="-1.00" shape="476627.685781,4977628.201994 476627.738300,4977642.576573 476635.689536,4977642.547527 476635.637034,4977628.172948 476627.685781,4977628.201994"/>
    <poly id="118880396" type="building" color="255,230,230" fill="1" layer="-1.00" shape="477316.077601,4977890.712747 477302.724032,4977890.904531 477302.880703,4977901.712821 477316.226401,4977901.532174 477316.077601,4977890.712747"/>
    <poly id="118880397" type="building" color="255,230,230" fill="1" layer="-1.00" shape="476754.288131,4977670.487294 476754.331001,4977682.284669 476765.058751,4977682.234586 476765.008053,4977670.448348 476754.288131,4977670.487294"/>
    <poly id="118880398" type="building" color="255,230,230" fill="1" layer="-1.00" shape="476747.405988,4977810.538572 476747.441483,4977820.303068 476757.979732,4977820.264769 476757.944253,4977810.500273 476747.405988,4977810.538572"/>
    <poly id="118880399" type="building" color="255,230,230" fill="1" layer="-1.00" shape="476713.969391,4977715.402347 476713.999598,4977723.700501 476721.579995,4977723.672911 476721.549797,4977715.374757 476713.969391,4977715.402347"/>
    <poly id="118880400" type="building" color="255,230,230" fill="1" layer="-1.00" shape="476659.835171,4977724.631084 476652.996250,4977724.656041 476653.031199,4977734.231689 476659.870110,4977734.206732 476659.835171,4977724.631084"/>
    <poly id="118880401" type="building" color="255,230,230" fill="1" layer="-1.00" shape="477200.139501,4977620.315064 477186.548685,4977620.496824 477186.768967,4977635.815046 477200.359711,4977635.622178 477200.139501,4977620.315064"/>
    <poly id="118880402" type="building" color="255,230,230" fill="1" layer="-1.00" shape="476689.956705,4977669.621622 476689.987591,4977678.097514 476704.959138,4977678.031867 476704.928272,4977669.555975 476689.956705,4977669.621622"/>
    <poly id="118880403" type="building" color="255,230,230" fill="1" layer="-1.00" shape="477247.197225,4978098.291765 477247.235359,4978109.011610 477265.786882,4978108.945643 477265.748779,4978098.225798 477247.197225,4978098.291765"/>
    <poly id="118880404" type="building" color="255,230,230" fill="1" layer="-1.00" shape="476727.294227,4977668.185947 476727.349878,4977683.482543 476734.188843,4977683.457666 476734.133208,4977668.161069 476727.294227,4977668.185947"/>
    <poly id="118880405" type="building" color="255,230,230" fill="1" layer="-1.00" shape="477237.808455,4977949.100845 477237.957050,4977962.042051 477254.694347,4977961.849206 477254.703933,4977962.326850 477257.417234,4977962.294984 477257.381050,4977958.773628 477259.676303,4977958.743250 477259.604885,4977951.967145 477257.293815,4977951.986471 477257.249625,4977948.431817 477254.615195,4977948.463402 477254.616815,4977948.918856 477237.808455,4977949.100845"/>
    <poly id="118880406" type="building" color="255,230,230" fill="1" layer="-1.00" shape="476558.784888,4977540.761340 476547.323252,4977540.803349 476547.361045,4977551.112165 476558.822663,4977551.070155 476558.784888,4977540.761340"/>
    <poly id="118880407" type="building" color="255,230,230" fill="1" layer="-1.00" shape="476945.051612,4977717.331409 476945.106062,4977732.439160 476962.301942,4977732.377207 476962.247532,4977717.269456 476945.051612,4977717.331409"/>
    <poly id="118880408" type="building" color="255,230,230" fill="1" layer="-1.00" shape="476703.305808,4977782.871518 476703.277649,4977775.139904 476689.229181,4977775.191084 476689.257356,4977782.922698 476703.305808,4977782.871518"/>
    <poly id="118880409" type="building" color="255,230,230" fill="1" layer="-1.00" shape="476690.772873,4977692.280574 476690.816342,4977702.045039 476705.417135,4977701.991853 476705.381536,4977692.216250 476690.772873,4977692.280574"/>
    <poly id="118880410" type="building" color="255,230,230" fill="1" layer="-1.00" shape="476647.962261,4977763.177477 476648.001273,4977773.863990 476659.833226,4977773.820807 476659.794233,4977763.134294 476647.962261,4977763.177477"/>
    <poly id="118880411" type="building" color="255,230,230" fill="1" layer="-1.00" shape="476485.754194,4977538.552105 476485.765099,4977552.249200 476502.669766,4977552.231520 476516.734624,4977552.213200 476516.723786,4977538.516106 476504.394314,4977538.528051 476485.754194,4977538.552105"/>
    <poly id="118880412" type="building" color="255,230,230" fill="1" layer="-1.00" shape="476885.872991,4977863.092292 476885.917588,4977875.433994 476912.160439,4977875.339218 476912.115892,4977862.997516 476885.872991,4977863.092292"/>
    <poly id="118880413" type="building" color="255,230,230" fill="1" layer="-1.00" shape="476642.486848,4977631.102871 476642.522501,4977640.867364 476657.864919,4977640.811362 476657.829289,4977631.046869 476642.486848,4977631.102871"/>
    <poly id="118880414" type="building" color="255,230,230" fill="1" layer="-1.00" shape="476560.162249,4977563.595958 476542.603053,4977563.660321 476542.634825,4977572.325059 476560.193997,4977572.260695 476560.162249,4977563.595958"/>
    <poly id="118880415" type="building" color="255,230,230" fill="1" layer="-1.00" shape="476888.728797,4977784.598392 476888.780733,4977798.972975 476919.283383,4977798.862840 476919.231516,4977784.488258 476888.728797,4977784.598392"/>
    <poly id="118880416" type="building" color="255,230,230" fill="1" layer="-1.00" shape="477237.493714,4977913.853792 477237.719883,4977926.428131 477256.941450,4977926.093147 477256.900340,4977923.404967 477259.329658,4977923.363003 477259.202236,4977916.364922 477256.749251,4977916.406970 477256.699543,4977913.518863 477237.493714,4977913.853792"/>
    <poly id="118880417" type="building" color="255,230,230" fill="1" layer="-1.00" shape="476759.372346,4977695.530242 476749.575369,4977695.565844 476749.602825,4977703.119719 476759.399790,4977703.084117 476759.372346,4977695.530242"/>
    <poly id="118880418" type="building" color="255,230,230" fill="1" layer="-1.00" shape="476648.256324,4977590.912436 476648.293996,4977601.232360 476657.168200,4977601.199972 476657.130542,4977590.880047 476648.256324,4977590.912436"/>
    <poly id="118880419" type="building" color="255,230,230" fill="1" layer="-1.00" shape="476749.614211,4977706.252355 476749.645664,4977714.905986 476759.261186,4977714.871044 476759.229746,4977706.217413 476749.614211,4977706.252355"/>
    <poly id="118880420" type="building" color="255,230,230" fill="1" layer="-1.00" shape="476591.680759,4977791.199598 476591.707752,4977798.575736 476599.477371,4977798.547308 476599.442499,4977791.171199 476591.680759,4977791.199598"/>